version 2
run BrakingNoGui-2-20170411-19:04:40-32064
attr beaconInterval 0.1
attr configname BrakingNoGui
attr controller 1
attr datetime 20170411-19:04:40
attr experiment BrakingNoGui
attr headway 0.1
attr inifile omnetpp.ini
attr iterationvars "$nCars=8, $platoonSize=8, $nLanes=1, $ploegH=0.5, $controller=1, $sController=\"CACC\", $headway=0.1, $leaderHeadway=1.2, $leaderSpeed=100, $beaconInterval=0.1, $priority=2, $packetSize=200, $0=5, $1=0"
attr iterationvars2 "$nCars=8, $platoonSize=8, $nLanes=1, $ploegH=0.5, $controller=1, $sController=\"CACC\", $headway=0.1, $leaderHeadway=1.2, $leaderSpeed=100, $beaconInterval=0.1, $priority=2, $packetSize=200, $0=5, $1=0, $repetition=0"
attr leaderHeadway 1.2
attr leaderSpeed 100
attr measurement "$nCars=8, $platoonSize=8, $nLanes=1, $ploegH=0.5, $controller=1, $sController=\"CACC\", $headway=0.1, $leaderHeadway=1.2, $leaderSpeed=100, $beaconInterval=0.1, $priority=2, $packetSize=200, $0=5, $1=0"
attr nCars 8
attr nLanes 1
attr network scenario
attr packetSize 200
attr platoonSize 8
attr ploegH 0.5
attr priority 2
attr processid 32064
attr repetition 0
attr replication #0
attr resultdir results
attr runnumber 2
attr sController "\"CACC\""
attr seedset 0
param **.coreDebug false
param **.debug false
param **.headway "${headway = 0.3, 1.2, 0.1, 0.1, 0.1 ! controller}s"
param **.numberOfCars "${nCars = 8}"
param **.numberOfCarsPerPlatoon "${platoonSize = 8}"
param **.numberOfLanes "${nLanes = 1}"
param **.numericController "${controller = 0, 0, 1, 2, 3}"
param **.seed ${repetition}
param **.traffic.nCars ${nCars}
param **.traffic.nLanes ${nLanes}
param **.traffic.platoonInsertDistance "${2, 2, 5, 2, 15 ! controller}m"
param **.traffic.platoonInsertHeadway "${0.3, 1.2, 0, 0.5, 0.8 ! controller}s"
param **.traffic.platoonInsertSpeed ${leaderSpeed}kmph
param **.traffic.platoonInsertTime "1 s"
param **.traffic.platoonLeaderHeadway ${leaderHeadway}s
param **.traffic.platoonSize ${platoonSize}
param **.traffic.platooningVType "\"vtypeauto\""
param **.traffic_type "\"PlatoonsTrafficManager\""
param *.**.nic.mac1609_4.bitrate 6Mbps
param *.**.nic.mac1609_4.txPower 100mW
param *.**.nic.mac1609_4.useServiceChannel false
param *.**.nic.phy80211p.analogueModels "xmldoc(\"config.xml\")"
param *.**.nic.phy80211p.decider "xmldoc(\"config.xml\")"
param *.**.nic.phy80211p.maxTXPower 100mW
param *.**.nic.phy80211p.sensitivity -94dBm
param *.**.nic.phy80211p.thermalNoise -95dBm
param *.**.nic.phy80211p.usePropagationDelay true
param *.**.nic.phy80211p.useThermalNoise true
param *.annotations.draw false
param *.connectionManager.alpha 2.0
param *.connectionManager.carrierFrequency "5.890e9 Hz"
param *.connectionManager.pMax 100mW
param *.connectionManager.sat -94dBm
param *.connectionManager.sendDirect true
param *.manager.autoShutdown true
param *.manager.commandLine "\"sumo-gui --remote-port $port --seed $seed --configuration-file $configFile\""
param *.manager.configFile "\"./sumocfg/freeway.sumo.cfg\""
param *.manager.host "\"localhost\""
param *.manager.margin 25
param *.manager.moduleDisplayString "\"\""
param *.manager.moduleName "\"node\""
param *.manager.moduleType "\"Car\""
param *.manager.updateInterval 0.01s
param *.node[*].appl.simulationDuration "60 s"
param *.node[*].appl_type "\"SimplePlatooningApp\""
param *.node[*].helper.nCars ${nCars}
param *.node[*].helper.nLanes ${nLanes}
param *.node[*].helper.platoonSize ${platoonSize}
param *.node[*].helper_type "\"PositionHelper\""
param *.node[*].mobility.x 0
param *.node[*].mobility.y 0
param *.node[*].mobility.z 1.895
param *.node[*].prot.beaconingInterval "${beaconInterval = 0.1}s"
param *.node[*].prot.packetSize "${packetSize = 200}"
param *.node[*].prot.priority "${priority = 2}"
param *.node[*].prot.useControllerAcceleration true
param *.node[*].protocol_type "\"SimplePlatooningBeaconing\""
param *.node[*].scenario.accHeadway ${headway}s
param *.node[*].scenario.brakingDeceleration "8 mpsps"
param *.node[*].scenario.caccC1 0.5
param *.node[*].scenario.caccOmegaN "0.2 Hz"
param *.node[*].scenario.caccXi 1
param *.node[*].scenario.controller "${sController = \"ACC\", \"ACC\", \"CACC\", \"PLOEG\", \"CONSENSUS\" ! controller}"
param *.node[*].scenario.engineTau "0.5 s"
param *.node[*].scenario.leaderHeadway "${leaderHeadway = 1.2}s"
param *.node[*].scenario.leaderOscillationFrequency "0.2 Hz"
param *.node[*].scenario.leaderSpeed "${leaderSpeed = 100}kmph"
param *.node[*].scenario.ploegH "${ploegH = 0.5}s"
param *.node[*].scenario.ploegKd 0.7
param *.node[*].scenario.ploegKp 0.2
param *.node[*].scenario.startBraking "5 s"
param *.node[*].scenario.useRealisticEngine false
param *.node[*].scenario_type "\"BrakingScenario\""
param *.node[*].unicast.packetLossRate 0
param *.obstacles.debug false
param *.playgroundSizeX 65000m
param *.playgroundSizeY 25000m
param *.playgroundSizeZ 50m
param *.world.use2D false
param *.world.useTorus false

vector 0  scenario.node[0].appl  distance  ETV
vector 1  scenario.node[0].appl  relativeSpeed  ETV
vector 2  scenario.node[0].appl  nodeId  ETV
vector 6  scenario.node[0].appl  acceleration  ETV
vector 7  scenario.node[0].appl  controllerAcceleration  ETV
vector 3  scenario.node[0].appl  speed  ETV
vector 4  scenario.node[0].appl  posx  ETV
vector 5  scenario.node[0].appl  posy  ETV
vector 22  scenario.node[1].appl  distance  ETV
vector 23  scenario.node[1].appl  relativeSpeed  ETV
vector 24  scenario.node[1].appl  nodeId  ETV
vector 28  scenario.node[1].appl  acceleration  ETV
vector 29  scenario.node[1].appl  controllerAcceleration  ETV
vector 25  scenario.node[1].appl  speed  ETV
vector 26  scenario.node[1].appl  posx  ETV
vector 27  scenario.node[1].appl  posy  ETV
vector 44  scenario.node[2].appl  distance  ETV
vector 45  scenario.node[2].appl  relativeSpeed  ETV
vector 46  scenario.node[2].appl  nodeId  ETV
vector 50  scenario.node[2].appl  acceleration  ETV
vector 51  scenario.node[2].appl  controllerAcceleration  ETV
vector 47  scenario.node[2].appl  speed  ETV
vector 48  scenario.node[2].appl  posx  ETV
vector 49  scenario.node[2].appl  posy  ETV
vector 66  scenario.node[3].appl  distance  ETV
vector 67  scenario.node[3].appl  relativeSpeed  ETV
vector 68  scenario.node[3].appl  nodeId  ETV
vector 72  scenario.node[3].appl  acceleration  ETV
vector 73  scenario.node[3].appl  controllerAcceleration  ETV
vector 69  scenario.node[3].appl  speed  ETV
vector 70  scenario.node[3].appl  posx  ETV
vector 71  scenario.node[3].appl  posy  ETV
vector 88  scenario.node[4].appl  distance  ETV
vector 89  scenario.node[4].appl  relativeSpeed  ETV
vector 90  scenario.node[4].appl  nodeId  ETV
vector 94  scenario.node[4].appl  acceleration  ETV
vector 95  scenario.node[4].appl  controllerAcceleration  ETV
vector 91  scenario.node[4].appl  speed  ETV
vector 92  scenario.node[4].appl  posx  ETV
vector 93  scenario.node[4].appl  posy  ETV
vector 110  scenario.node[5].appl  distance  ETV
vector 111  scenario.node[5].appl  relativeSpeed  ETV
vector 112  scenario.node[5].appl  nodeId  ETV
vector 116  scenario.node[5].appl  acceleration  ETV
vector 117  scenario.node[5].appl  controllerAcceleration  ETV
vector 113  scenario.node[5].appl  speed  ETV
vector 114  scenario.node[5].appl  posx  ETV
vector 115  scenario.node[5].appl  posy  ETV
vector 132  scenario.node[6].appl  distance  ETV
vector 133  scenario.node[6].appl  relativeSpeed  ETV
vector 134  scenario.node[6].appl  nodeId  ETV
vector 138  scenario.node[6].appl  acceleration  ETV
vector 139  scenario.node[6].appl  controllerAcceleration  ETV
vector 135  scenario.node[6].appl  speed  ETV
vector 136  scenario.node[6].appl  posx  ETV
vector 137  scenario.node[6].appl  posy  ETV
vector 154  scenario.node[7].appl  distance  ETV
vector 155  scenario.node[7].appl  relativeSpeed  ETV
vector 156  scenario.node[7].appl  nodeId  ETV
vector 160  scenario.node[7].appl  acceleration  ETV
vector 161  scenario.node[7].appl  controllerAcceleration  ETV
vector 157  scenario.node[7].appl  speed  ETV
vector 158  scenario.node[7].appl  posx  ETV
vector 159  scenario.node[7].appl  posy  ETV
vector 80  scenario.node[3].prot  frontDelay  ETV
vector 78  scenario.node[3].prot  frontDelayId  ETV
vector 58  scenario.node[2].prot  frontDelay  ETV
vector 56  scenario.node[2].prot  frontDelayId  ETV
vector 168  scenario.node[7].prot  frontDelay  ETV
vector 166  scenario.node[7].prot  frontDelayId  ETV
vector 35  scenario.node[1].prot  leaderDelay  ETV
vector 33  scenario.node[1].prot  leaderDelayId  ETV
vector 36  scenario.node[1].prot  frontDelay  ETV
vector 34  scenario.node[1].prot  frontDelayId  ETV
vector 57  scenario.node[2].prot  leaderDelay  ETV
vector 55  scenario.node[2].prot  leaderDelayId  ETV
vector 79  scenario.node[3].prot  leaderDelay  ETV
vector 77  scenario.node[3].prot  leaderDelayId  ETV
vector 101  scenario.node[4].prot  leaderDelay  ETV
vector 99  scenario.node[4].prot  leaderDelayId  ETV
vector 123  scenario.node[5].prot  leaderDelay  ETV
vector 121  scenario.node[5].prot  leaderDelayId  ETV
vector 145  scenario.node[6].prot  leaderDelay  ETV
vector 143  scenario.node[6].prot  leaderDelayId  ETV
vector 167  scenario.node[7].prot  leaderDelay  ETV
vector 165  scenario.node[7].prot  leaderDelayId  ETV
vector 124  scenario.node[5].prot  frontDelay  ETV
vector 122  scenario.node[5].prot  frontDelayId  ETV
vector 102  scenario.node[4].prot  frontDelay  ETV
vector 100  scenario.node[4].prot  frontDelayId  ETV
vector 146  scenario.node[6].prot  frontDelay  ETV
vector 144  scenario.node[6].prot  frontDelayId  ETV
vector 8  scenario.node[0].prot  nodeId  ETV
vector 9  scenario.node[0].prot  busyTime  ETV
vector 10  scenario.node[0].prot  collisions  ETV
vector 30  scenario.node[1].prot  nodeId  ETV
vector 31  scenario.node[1].prot  busyTime  ETV
vector 32  scenario.node[1].prot  collisions  ETV
vector 52  scenario.node[2].prot  nodeId  ETV
vector 53  scenario.node[2].prot  busyTime  ETV
vector 54  scenario.node[2].prot  collisions  ETV
vector 74  scenario.node[3].prot  nodeId  ETV
vector 75  scenario.node[3].prot  busyTime  ETV
vector 76  scenario.node[3].prot  collisions  ETV
vector 96  scenario.node[4].prot  nodeId  ETV
vector 97  scenario.node[4].prot  busyTime  ETV
vector 98  scenario.node[4].prot  collisions  ETV
vector 118  scenario.node[5].prot  nodeId  ETV
vector 119  scenario.node[5].prot  busyTime  ETV
vector 120  scenario.node[5].prot  collisions  ETV
vector 140  scenario.node[6].prot  nodeId  ETV
vector 141  scenario.node[6].prot  busyTime  ETV
vector 142  scenario.node[6].prot  collisions  ETV
vector 162  scenario.node[7].prot  nodeId  ETV
vector 163  scenario.node[7].prot  busyTime  ETV
vector 164  scenario.node[7].prot  collisions  ETV
7	232	1.11	-8.430731206488e-07
7	788	1.21	-8.247038785214e-07
7	1344	1.31	-7.948429328053e-07
7	1900	1.41	-7.5609037608615e-07
7	2456	1.51	-7.1073863239235e-07
7	3012	1.61	-6.6078666094427e-07
7	3568	1.71	-6.079568990458e-07
7	4124	1.81	-5.5371389606762e-07
7	4680	1.91	-4.9928438983216e-07
7	5244	2.01	-4.4567811841034e-07
7	5800	2.11	-3.9370868165634e-07
7	6356	2.21	-3.4401411852514e-07
7	6912	2.31	-2.9707706872273e-07
7	7468	2.41	-2.5324398578164e-07
7	8024	2.51	-2.1274344064182e-07
7	8580	2.61	-1.7570315336002e-07
7	9136	2.71	-1.4216582755466e-07
7	9692	2.81	-1.1210364547765e-07
7	10248	2.91	-8.5431519636359e-08
7	10812	3.01	-6.2018816748832e-08
7	11368	3.11	-4.1699859565369e-08
7	11924	3.21	-2.4283316690799e-08
7	12480	3.31	-9.5601571103998e-09
7	13036	3.41	2.6894362292751e-09
7	13592	3.51	1.2690140493987e-08
7	14148	3.61	2.0666576006079e-08
7	14704	3.71	2.6839355626862e-08
7	15260	3.81	3.1421798496467e-08
7	15816	3.91	3.4617407607129e-08
7	16380	4.01	3.6617997523081e-08
7	16936	4.11	3.7602347902066e-08
7	17492	4.21	3.7735404134764e-08
7	18048	4.31	3.7167730226884e-08
7	18604	4.41	3.6035434192172e-08
7	19160	4.51	3.446024621212e-08
7	19716	4.61	3.2549973383311e-08
7	20272	4.71	3.0399071704323e-08
7	20828	4.81	2.8089345960325e-08
7	21384	4.91	2.5690727767369e-08
7	21949	5.01	-8
7	22505	5.11	-8
7	23061	5.21	-8
7	23617	5.31	-8
7	24173	5.41	-8
7	24729	5.51	-8
7	25285	5.61	-8
7	25841	5.71	-8
7	26397	5.81	-8
7	26953	5.91	-8
7	27517	6.01	-8
7	28073	6.11	-8
7	28629	6.21	-8
7	29185	6.31	-8
7	29741	6.41	-8
7	30297	6.51	-8
7	30853	6.61	-8
7	31409	6.71	-8
7	31965	6.81	-8
7	32521	6.91	-8
7	33085	7.01	-8
7	33641	7.11	-8
7	34197	7.21	-8
7	34753	7.31	-8
7	35309	7.41	-8
7	35865	7.51	-8
7	36421	7.61	-8
7	36977	7.71	-8
7	37533	7.81	-8
7	38089	7.91	-8
7	38653	8.01	-8
7	39209	8.11	-8
7	39765	8.21	-8
7	40321	8.31	-8
7	40877	8.41	-8
7	41433	8.51	-8
7	41989	8.61	-8
7	42545	8.71	-8
7	43101	8.81	-8
7	43657	8.91	-8
7	44221	9.01	-8
7	44777	9.11	-8
7	45333	9.21	-8
7	45889	9.31	-8
7	46445	9.41	-8
7	47001	9.51	-8
7	47557	9.61	-8
7	48113	9.71	-8
7	48669	9.81	-8
7	49225	9.91	-8
7	49789	10.01	-8
7	50345	10.11	-8
7	50901	10.21	-8
7	51457	10.31	-8
7	52013	10.41	-8
7	52569	10.51	-8
7	53125	10.61	-8
7	53681	10.71	-8
7	54237	10.81	-8
7	54793	10.91	-8
7	55357	11.01	-8
7	55913	11.11	-8
7	56469	11.21	-8
7	57025	11.31	-8
7	57581	11.41	-8
7	58137	11.51	-8
7	58693	11.61	-8
7	59249	11.71	-8
7	59805	11.81	-8
7	60361	11.91	-8
7	60925	12.01	-8
7	61481	12.11	-8
7	62037	12.21	-8
7	62593	12.31	-8
7	63149	12.41	-8
7	63705	12.51	-8
7	64261	12.61	-8
7	64817	12.71	-8
7	65373	12.81	-8
7	65929	12.91	-8
7	66493	13.01	-8
7	67049	13.11	-8
7	67605	13.21	-8
7	68161	13.31	-8
7	68717	13.41	-8
7	69273	13.51	-8
7	69829	13.61	-8
7	70385	13.71	-8
7	70941	13.81	-8
7	71497	13.91	-8
7	72061	14.01	-8
7	72617	14.11	-8
7	73173	14.21	-8
7	73729	14.31	-8
7	74285	14.41	-8
7	74841	14.51	-8
7	75397	14.61	-8
7	75953	14.71	-8
7	76509	14.81	-8
7	77065	14.91	-8
7	77629	15.01	-8
7	78185	15.11	-8
7	78741	15.21	-8
7	79297	15.31	-8
7	79853	15.41	-8
7	80409	15.51	-8
7	80965	15.61	-8
7	81521	15.71	-8
7	82077	15.81	-8
7	82633	15.91	-8
7	83197	16.01	-8
7	83753	16.11	-8
7	84309	16.21	-8
7	84865	16.31	-8
7	85421	16.41	-8
7	85977	16.51	-8
7	86533	16.61	-8
7	87089	16.71	-8
7	87645	16.81	-8
7	88201	16.91	-8
7	88765	17.01	-8
7	89321	17.11	-8
7	89877	17.21	-8
7	90433	17.31	-8
7	90989	17.41	-8
7	91545	17.51	-8
7	92101	17.61	-8
7	92657	17.71	-8
7	93213	17.81	-8
7	93769	17.91	-8
7	94333	18.01	-8
7	94889	18.11	-8
7	95445	18.21	-8
7	96001	18.31	-8
7	96557	18.41	-8
7	97113	18.51	-8
7	97669	18.61	-8
7	98225	18.71	-8
7	98781	18.81	-8
7	99337	18.91	-8
7	99901	19.01	-8
7	100457	19.11	-8
7	101013	19.21	-8
7	101569	19.31	-8
7	102125	19.41	-8
7	102681	19.51	-8
7	103237	19.61	-8
7	103793	19.71	-8
7	104349	19.81	-8
7	104905	19.91	-8
7	105469	20.01	-8
7	106025	20.11	-8
7	106581	20.21	-8
7	107137	20.31	-8
7	107693	20.41	-8
7	108249	20.51	-8
7	108805	20.61	-8
7	109361	20.71	-8
7	109917	20.81	-8
7	110473	20.91	-8
7	111037	21.01	-8
7	111593	21.11	-8
7	112149	21.21	-8
7	112705	21.31	-8
7	113261	21.41	-8
7	113817	21.51	-8
7	114373	21.61	-8
7	114929	21.71	-8
7	115485	21.81	-8
7	116041	21.91	-8
7	116605	22.01	-8
7	117161	22.11	-8
7	117717	22.21	-8
7	118273	22.31	-8
7	118829	22.41	-8
7	119385	22.51	-8
7	119941	22.61	-8
7	120497	22.71	-8
7	121053	22.81	-8
7	121609	22.91	-8
7	122173	23.01	-8
7	122729	23.11	-8
7	123285	23.21	-8
7	123841	23.31	-8
7	124397	23.41	-8
7	124953	23.51	-8
7	125509	23.61	-8
7	126065	23.71	-8
7	126621	23.81	-8
7	127177	23.91	-8
7	127741	24.01	-8
7	128297	24.11	-8
7	128853	24.21	-8
7	129409	24.31	-8
7	129965	24.41	-8
7	130521	24.51	-8
7	131077	24.61	-8
7	131633	24.71	-8
7	132189	24.81	-8
7	132745	24.91	-8
7	133309	25.01	-8
7	133865	25.11	-8
7	134421	25.21	-8
7	134977	25.31	-8
7	135533	25.41	-8
7	136089	25.51	-8
7	136645	25.61	-8
7	137201	25.71	-8
7	137757	25.81	-8
7	138313	25.91	-8
7	138877	26.01	-8
7	139433	26.11	-8
7	139989	26.21	-8
7	140545	26.31	-8
7	141101	26.41	-8
7	141657	26.51	-8
7	142213	26.61	-8
7	142769	26.71	-8
7	143325	26.81	-8
7	143881	26.91	-8
7	144445	27.01	-8
7	145001	27.11	-8
7	145557	27.21	-8
7	146113	27.31	-8
7	146669	27.41	-8
7	147225	27.51	-8
7	147781	27.61	-8
7	148337	27.71	-8
7	148893	27.81	-8
7	149449	27.91	-8
7	150013	28.01	-8
7	150569	28.11	-8
7	151125	28.21	-8
7	151681	28.31	-8
7	152237	28.41	-8
7	152793	28.51	-8
7	153349	28.61	-8
7	153905	28.71	-8
7	154461	28.81	-8
7	155017	28.91	-8
7	155581	29.01	-8
7	156137	29.11	-8
7	156693	29.21	-8
7	157249	29.31	-8
7	157805	29.41	-8
7	158361	29.51	-8
7	158917	29.61	-8
7	159473	29.71	-8
7	160029	29.81	-8
7	160585	29.91	-8
7	161149	30.01	-8
7	161705	30.11	-8
7	162261	30.21	-8
7	162817	30.31	-8
7	163373	30.41	-8
7	163929	30.51	-8
7	164485	30.61	-8
7	165041	30.71	-8
7	165597	30.81	-8
7	166153	30.91	-8
7	166717	31.01	-8
7	167273	31.11	-8
7	167829	31.21	-8
7	168385	31.31	-8
7	168941	31.41	-8
7	169497	31.51	-8
7	170053	31.61	-8
7	170609	31.71	-8
7	171165	31.81	-8
7	171721	31.91	-8
7	172285	32.01	-8
7	172841	32.11	-8
7	173397	32.21	-8
7	173953	32.31	-8
7	174509	32.41	-8
7	175065	32.51	-8
7	175621	32.61	-8
7	176177	32.71	-8
7	176733	32.81	-8
7	177289	32.91	-8
7	177853	33.01	-8
7	178409	33.11	-8
7	178965	33.21	-8
7	179521	33.31	-8
7	180077	33.41	-8
7	180633	33.51	-8
7	181189	33.61	-8
7	181745	33.71	-8
7	182301	33.81	-8
7	182857	33.91	-8
7	183421	34.01	-8
7	183977	34.11	-8
7	184533	34.21	-8
7	185089	34.31	-8
7	185645	34.41	-8
7	186201	34.51	-8
7	186757	34.61	-8
7	187313	34.71	-8
7	187869	34.81	-8
7	188425	34.91	-8
7	188989	35.01	-8
7	189545	35.11	-8
7	190101	35.21	-8
7	190657	35.31	-8
7	191213	35.41	-8
7	191769	35.51	-8
7	192325	35.61	-8
7	192881	35.71	-8
7	193437	35.81	-8
7	193993	35.91	-8
7	194557	36.01	-8
7	195113	36.11	-8
7	195669	36.21	-8
7	196225	36.31	-8
7	196781	36.41	-8
7	197337	36.51	-8
7	197893	36.61	-8
7	198449	36.71	-8
7	199005	36.81	-8
7	199561	36.91	-8
7	200125	37.01	-8
7	200681	37.11	-8
7	201237	37.21	-8
7	201793	37.31	-8
7	202349	37.41	-8
7	202905	37.51	-8
7	203461	37.61	-8
7	204017	37.71	-8
7	204573	37.81	-8
7	205129	37.91	-8
7	205693	38.01	-8
7	206249	38.11	-8
7	206805	38.21	-8
7	207361	38.31	-8
7	207917	38.41	-8
7	208473	38.51	-8
7	209029	38.61	-8
7	209585	38.71	-8
7	210141	38.81	-8
7	210697	38.91	-8
7	211261	39.01	-8
7	211817	39.11	-8
7	212373	39.21	-8
7	212929	39.31	-8
7	213485	39.41	-8
7	214041	39.51	-8
7	214597	39.61	-8
7	215153	39.71	-8
7	215709	39.81	-8
7	216265	39.91	-8
7	216829	40.01	-8
7	217385	40.11	-8
7	217941	40.21	-8
7	218497	40.31	-8
7	219053	40.41	-8
7	219609	40.51	-8
7	220165	40.61	-8
7	220721	40.71	-8
7	221277	40.81	-8
7	221833	40.91	-8
7	222397	41.01	-8
7	222953	41.11	-8
7	223509	41.21	-8
7	224065	41.31	-8
7	224621	41.41	-8
7	225177	41.51	-8
7	225733	41.61	-8
7	226289	41.71	-8
7	226845	41.81	-8
7	227401	41.91	-8
7	227965	42.01	-8
7	228521	42.11	-8
7	229077	42.21	-8
7	229633	42.31	-8
7	230189	42.41	-8
7	230745	42.51	-8
7	231301	42.61	-8
7	231857	42.71	-8
7	232413	42.81	-8
7	232969	42.91	-8
7	233533	43.01	-8
7	234089	43.11	-8
7	234645	43.21	-8
7	235201	43.31	-8
7	235757	43.41	-8
7	236313	43.51	-8
7	236869	43.61	-8
7	237425	43.71	-8
7	237981	43.81	-8
7	238537	43.91	-8
7	239101	44.01	-8
7	239657	44.11	-8
7	240213	44.21	-8
7	240769	44.31	-8
7	241325	44.41	-8
7	241881	44.51	-8
7	242437	44.61	-8
7	242993	44.71	-8
7	243549	44.81	-8
7	244105	44.91	-8
7	244669	45.01	-8
7	245225	45.11	-8
7	245781	45.21	-8
7	246337	45.31	-8
7	246893	45.41	-8
7	247449	45.51	-8
7	248005	45.61	-8
7	248561	45.71	-8
7	249117	45.81	-8
7	249673	45.91	-8
7	250237	46.01	-8
7	250793	46.11	-8
7	251349	46.21	-8
7	251905	46.31	-8
7	252461	46.41	-8
7	253017	46.51	-8
7	253573	46.61	-8
7	254129	46.71	-8
7	254685	46.81	-8
7	255241	46.91	-8
7	255805	47.01	-8
7	256361	47.11	-8
7	256917	47.21	-8
7	257473	47.31	-8
7	258029	47.41	-8
7	258585	47.51	-8
7	259141	47.61	-8
7	259697	47.71	-8
7	260253	47.81	-8
7	260809	47.91	-8
7	261373	48.01	-8
7	261929	48.11	-8
7	262485	48.21	-8
7	263041	48.31	-8
7	263597	48.41	-8
7	264153	48.51	-8
7	264709	48.61	-8
7	265265	48.71	-8
7	265821	48.81	-8
7	266377	48.91	-8
7	266941	49.01	-8
7	267497	49.11	-8
7	268053	49.21	-8
7	268609	49.31	-8
7	269165	49.41	-8
7	269721	49.51	-8
7	270277	49.61	-8
7	270833	49.71	-8
7	271389	49.81	-8
7	271945	49.91	-8
7	272509	50.01	-8
7	273065	50.11	-8
7	273621	50.21	-8
7	274177	50.31	-8
7	274733	50.41	-8
7	275289	50.51	-8
7	275845	50.61	-8
7	276401	50.71	-8
7	276957	50.81	-8
7	277513	50.91	-8
7	278077	51.01	-8
7	278633	51.11	-8
7	279189	51.21	-8
7	279745	51.31	-8
7	280301	51.41	-8
7	280857	51.51	-8
7	281413	51.61	-8
7	281969	51.71	-8
7	282525	51.81	-8
7	283081	51.91	-8
7	283645	52.01	-8
7	284201	52.11	-8
7	284757	52.21	-8
7	285313	52.31	-8
7	285869	52.41	-8
7	286425	52.51	-8
7	286981	52.61	-8
7	287537	52.71	-8
7	288093	52.81	-8
7	288649	52.91	-8
7	289213	53.01	-8
7	289769	53.11	-8
7	290325	53.21	-8
7	290881	53.31	-8
7	291437	53.41	-8
7	291993	53.51	-8
7	292549	53.61	-8
7	293105	53.71	-8
7	293661	53.81	-8
7	294217	53.91	-8
7	294781	54.01	-8
7	295337	54.11	-8
7	295893	54.21	-8
7	296449	54.31	-8
7	297005	54.41	-8
7	297561	54.51	-8
7	298117	54.61	-8
7	298673	54.71	-8
7	299229	54.81	-8
7	299785	54.91	-8
7	300349	55.01	-8
7	300905	55.11	-8
7	301461	55.21	-8
7	302017	55.31	-8
7	302573	55.41	-8
7	303129	55.51	-8
7	303685	55.61	-8
7	304241	55.71	-8
7	304797	55.81	-8
7	305353	55.91	-8
7	305917	56.01	-8
7	306473	56.11	-8
7	307029	56.21	-8
7	307585	56.31	-8
7	308141	56.41	-8
7	308697	56.51	-8
7	309253	56.61	-8
7	309809	56.71	-8
7	310365	56.81	-8
7	310921	56.91	-8
7	311485	57.01	-8
7	312041	57.11	-8
7	312597	57.21	-8
7	313153	57.31	-8
7	313709	57.41	-8
7	314265	57.51	-8
7	314821	57.61	-8
7	315377	57.71	-8
7	315933	57.81	-8
7	316489	57.91	-8
7	317053	58.01	-8
7	317609	58.11	-8
7	318165	58.21	-8
7	318721	58.31	-8
7	319277	58.41	-8
7	319833	58.51	-8
7	320389	58.61	-8
7	320945	58.71	-8
7	321501	58.81	-8
7	322057	58.91	-8
7	322621	59.01	-8
7	323177	59.11	-8
7	323733	59.21	-8
7	324289	59.31	-8
7	324845	59.41	-8
7	325401	59.51	-8
7	325957	59.61	-8
7	326513	59.71	-8
7	327069	59.81	-8
7	327625	59.91	-8
6	232	1.11	-1.2391545567425e-07
6	788	1.21	-2.514333630188e-07
6	1344	1.31	-3.5153284727585e-07
6	1900	1.41	-4.2734420446777e-07
6	2456	1.51	-4.8187125401e-07
6	3012	1.61	-5.1795971955926e-07
6	3568	1.71	-5.3827413637464e-07
6	4124	1.81	-5.4528506154838e-07
6	4680	1.91	-5.4125663950799e-07
6	5244	2.01	-5.2824375984528e-07
6	5800	2.11	-5.080941889446e-07
6	6356	2.21	-4.8245141215375e-07
6	6912	2.31	-4.5276244975412e-07
6	7468	2.41	-4.202860282021e-07
6	8024	2.51	-3.8610643571246e-07
6	8580	2.61	-3.5114133822844e-07
6	9136	2.71	-3.1616025353287e-07
6	9692	2.81	-2.8179307776099e-07
6	10248	2.91	-2.4854536206931e-07
6	10812	3.01	-2.1681287876163e-07
6	11368	3.11	-1.8689298997288e-07
6	11924	3.21	-1.5899530581009e-07
6	12480	3.31	-1.3325838210676e-07
6	13036	3.41	-1.0975469422192e-07
6	13592	3.51	-8.8505203166278e-08
6	14148	3.61	-6.948575048682e-08
6	14704	3.71	-5.263665059374e-08
6	15260	3.81	-3.7870506730542e-08
6	15816	3.91	-2.5077895315917e-08
6	16380	4.01	-1.4133405557004e-08
6	16936	4.11	-4.9016790626411e-09
6	17492	4.21	2.7593927143243e-09
6	18048	4.31	8.9940499492513e-09
6	18604	4.41	1.3947598631603e-08
6	19160	4.51	1.7761081494427e-08
6	19716	4.61	2.0570567471623e-08
6	20272	4.71	2.2507151697937e-08
6	20828	4.81	2.3691626438449e-08
6	21384	4.91	2.4239099616352e-08
6	21949	5.01	-0.15686272130075
6	22505	5.11	-1.5658956677317
6	23061	5.21	-2.7217934498047
6	23617	5.31	-3.6700322301574
6	24173	5.41	-4.447918301495
6	24729	5.51	-5.0860558176137
6	25285	5.61	-5.6095508440482
6	25841	5.71	-6.0389990989773
6	26397	5.81	-6.3912962447926
6	26953	5.91	-6.6803026094128
6	27517	6.01	-6.9173884892816
6	28073	6.11	-7.1118814877572
6	28629	6.21	-7.2714334883941
6	29185	6.31	-7.402321700858
6	29741	6.41	-7.5096956234258
6	30297	6.51	-7.597779638256
6	30853	6.61	-7.670039210068
6	31409	6.71	-7.7293172269538
6	31965	6.81	-7.7779458473259
6	32521	6.91	-7.8178382533736
6	33085	7.01	-7.8505639208522
6	33641	7.11	-7.8774103665308
6	34197	7.21	-7.8994338026012
6	34753	7.31	-7.9175006909391
6	35309	7.41	-7.9323218320713
6	35865	7.51	-7.9444803300012
6	36421	7.61	-7.9544545331069
6	36977	7.71	-7.9626368536672
6	37533	7.81	-7.9693492064278
6	38089	7.91	-7.9748556736032
6	38653	8.01	-7.9793728945889
6	39209	8.11	-7.9830785891447
6	39765	8.21	-7.9861185493733
6	40321	8.31	-7.9886123755786
6	40877	8.41	-7.9906581816663
6	41433	8.51	-7.9923364552122
6	41989	8.61	-7.9937132240623
6	42545	8.71	-7.9948426540478
6	43101	8.81	-7.9957691800162
6	43657	8.91	-7.9965292540192
6	44221	9.01	0
6	44777	9.11	0
6	45333	9.21	0
6	45889	9.31	0
6	46445	9.41	0
6	47001	9.51	0
6	47557	9.61	0
6	48113	9.71	0
6	48669	9.81	0
6	49225	9.91	0
6	49789	10.01	0
6	50345	10.11	0
6	50901	10.21	0
6	51457	10.31	0
6	52013	10.41	0
6	52569	10.51	0
6	53125	10.61	0
6	53681	10.71	0
6	54237	10.81	0
6	54793	10.91	0
6	55357	11.01	0
6	55913	11.11	0
6	56469	11.21	0
6	57025	11.31	0
6	57581	11.41	0
6	58137	11.51	0
6	58693	11.61	0
6	59249	11.71	0
6	59805	11.81	0
6	60361	11.91	0
6	60925	12.01	0
6	61481	12.11	0
6	62037	12.21	0
6	62593	12.31	0
6	63149	12.41	0
6	63705	12.51	0
6	64261	12.61	0
6	64817	12.71	0
6	65373	12.81	0
6	65929	12.91	0
6	66493	13.01	0
6	67049	13.11	0
6	67605	13.21	0
6	68161	13.31	0
6	68717	13.41	0
6	69273	13.51	0
6	69829	13.61	0
6	70385	13.71	0
6	70941	13.81	0
6	71497	13.91	0
6	72061	14.01	0
6	72617	14.11	0
6	73173	14.21	0
6	73729	14.31	0
6	74285	14.41	0
6	74841	14.51	0
6	75397	14.61	0
6	75953	14.71	0
6	76509	14.81	0
6	77065	14.91	0
6	77629	15.01	0
6	78185	15.11	0
6	78741	15.21	0
6	79297	15.31	0
6	79853	15.41	0
6	80409	15.51	0
6	80965	15.61	0
6	81521	15.71	0
6	82077	15.81	0
6	82633	15.91	0
6	83197	16.01	0
6	83753	16.11	0
6	84309	16.21	0
6	84865	16.31	0
6	85421	16.41	0
6	85977	16.51	0
6	86533	16.61	0
6	87089	16.71	0
6	87645	16.81	0
6	88201	16.91	0
6	88765	17.01	0
6	89321	17.11	0
6	89877	17.21	0
6	90433	17.31	0
6	90989	17.41	0
6	91545	17.51	0
6	92101	17.61	0
6	92657	17.71	0
6	93213	17.81	0
6	93769	17.91	0
6	94333	18.01	0
6	94889	18.11	0
6	95445	18.21	0
6	96001	18.31	0
6	96557	18.41	0
6	97113	18.51	0
6	97669	18.61	0
6	98225	18.71	0
6	98781	18.81	0
6	99337	18.91	0
6	99901	19.01	0
6	100457	19.11	0
6	101013	19.21	0
6	101569	19.31	0
6	102125	19.41	0
6	102681	19.51	0
6	103237	19.61	0
6	103793	19.71	0
6	104349	19.81	0
6	104905	19.91	0
6	105469	20.01	0
6	106025	20.11	0
6	106581	20.21	0
6	107137	20.31	0
6	107693	20.41	0
6	108249	20.51	0
6	108805	20.61	0
6	109361	20.71	0
6	109917	20.81	0
6	110473	20.91	0
6	111037	21.01	0
6	111593	21.11	0
6	112149	21.21	0
6	112705	21.31	0
6	113261	21.41	0
6	113817	21.51	0
6	114373	21.61	0
6	114929	21.71	0
6	115485	21.81	0
6	116041	21.91	0
6	116605	22.01	0
6	117161	22.11	0
6	117717	22.21	0
6	118273	22.31	0
6	118829	22.41	0
6	119385	22.51	0
6	119941	22.61	0
6	120497	22.71	0
6	121053	22.81	0
6	121609	22.91	0
6	122173	23.01	0
6	122729	23.11	0
6	123285	23.21	0
6	123841	23.31	0
6	124397	23.41	0
6	124953	23.51	0
6	125509	23.61	0
6	126065	23.71	0
6	126621	23.81	0
6	127177	23.91	0
6	127741	24.01	0
6	128297	24.11	0
6	128853	24.21	0
6	129409	24.31	0
6	129965	24.41	0
6	130521	24.51	0
6	131077	24.61	0
6	131633	24.71	0
6	132189	24.81	0
6	132745	24.91	0
6	133309	25.01	0
6	133865	25.11	0
6	134421	25.21	0
6	134977	25.31	0
6	135533	25.41	0
6	136089	25.51	0
6	136645	25.61	0
6	137201	25.71	0
6	137757	25.81	0
6	138313	25.91	0
6	138877	26.01	0
6	139433	26.11	0
6	139989	26.21	0
6	140545	26.31	0
6	141101	26.41	0
6	141657	26.51	0
6	142213	26.61	0
6	142769	26.71	0
6	143325	26.81	0
6	143881	26.91	0
6	144445	27.01	0
6	145001	27.11	0
6	145557	27.21	0
6	146113	27.31	0
6	146669	27.41	0
6	147225	27.51	0
6	147781	27.61	0
6	148337	27.71	0
6	148893	27.81	0
6	149449	27.91	0
6	150013	28.01	0
6	150569	28.11	0
6	151125	28.21	0
6	151681	28.31	0
6	152237	28.41	0
6	152793	28.51	0
6	153349	28.61	0
6	153905	28.71	0
6	154461	28.81	0
6	155017	28.91	0
6	155581	29.01	0
6	156137	29.11	0
6	156693	29.21	0
6	157249	29.31	0
6	157805	29.41	0
6	158361	29.51	0
6	158917	29.61	0
6	159473	29.71	0
6	160029	29.81	0
6	160585	29.91	0
6	161149	30.01	0
6	161705	30.11	0
6	162261	30.21	0
6	162817	30.31	0
6	163373	30.41	0
6	163929	30.51	0
6	164485	30.61	0
6	165041	30.71	0
6	165597	30.81	0
6	166153	30.91	0
6	166717	31.01	0
6	167273	31.11	0
6	167829	31.21	0
6	168385	31.31	0
6	168941	31.41	0
6	169497	31.51	0
6	170053	31.61	0
6	170609	31.71	0
6	171165	31.81	0
6	171721	31.91	0
6	172285	32.01	0
6	172841	32.11	0
6	173397	32.21	0
6	173953	32.31	0
6	174509	32.41	0
6	175065	32.51	0
6	175621	32.61	0
6	176177	32.71	0
6	176733	32.81	0
6	177289	32.91	0
6	177853	33.01	0
6	178409	33.11	0
6	178965	33.21	0
6	179521	33.31	0
6	180077	33.41	0
6	180633	33.51	0
6	181189	33.61	0
6	181745	33.71	0
6	182301	33.81	0
6	182857	33.91	0
6	183421	34.01	0
6	183977	34.11	0
6	184533	34.21	0
6	185089	34.31	0
6	185645	34.41	0
6	186201	34.51	0
6	186757	34.61	0
6	187313	34.71	0
6	187869	34.81	0
6	188425	34.91	0
6	188989	35.01	0
6	189545	35.11	0
6	190101	35.21	0
6	190657	35.31	0
6	191213	35.41	0
6	191769	35.51	0
6	192325	35.61	0
6	192881	35.71	0
6	193437	35.81	0
6	193993	35.91	0
6	194557	36.01	0
6	195113	36.11	0
6	195669	36.21	0
6	196225	36.31	0
6	196781	36.41	0
6	197337	36.51	0
6	197893	36.61	0
6	198449	36.71	0
6	199005	36.81	0
6	199561	36.91	0
6	200125	37.01	0
6	200681	37.11	0
6	201237	37.21	0
6	201793	37.31	0
6	202349	37.41	0
6	202905	37.51	0
6	203461	37.61	0
6	204017	37.71	0
6	204573	37.81	0
6	205129	37.91	0
6	205693	38.01	0
6	206249	38.11	0
6	206805	38.21	0
6	207361	38.31	0
6	207917	38.41	0
6	208473	38.51	0
6	209029	38.61	0
6	209585	38.71	0
6	210141	38.81	0
6	210697	38.91	0
6	211261	39.01	0
6	211817	39.11	0
6	212373	39.21	0
6	212929	39.31	0
6	213485	39.41	0
6	214041	39.51	0
6	214597	39.61	0
6	215153	39.71	0
6	215709	39.81	0
6	216265	39.91	0
6	216829	40.01	0
6	217385	40.11	0
6	217941	40.21	0
6	218497	40.31	0
6	219053	40.41	0
6	219609	40.51	0
6	220165	40.61	0
6	220721	40.71	0
6	221277	40.81	0
6	221833	40.91	0
6	222397	41.01	0
6	222953	41.11	0
6	223509	41.21	0
6	224065	41.31	0
6	224621	41.41	0
6	225177	41.51	0
6	225733	41.61	0
6	226289	41.71	0
6	226845	41.81	0
6	227401	41.91	0
6	227965	42.01	0
6	228521	42.11	0
6	229077	42.21	0
6	229633	42.31	0
6	230189	42.41	0
6	230745	42.51	0
6	231301	42.61	0
6	231857	42.71	0
6	232413	42.81	0
6	232969	42.91	0
6	233533	43.01	0
6	234089	43.11	0
6	234645	43.21	0
6	235201	43.31	0
6	235757	43.41	0
6	236313	43.51	0
6	236869	43.61	0
6	237425	43.71	0
6	237981	43.81	0
6	238537	43.91	0
6	239101	44.01	0
6	239657	44.11	0
6	240213	44.21	0
6	240769	44.31	0
6	241325	44.41	0
6	241881	44.51	0
6	242437	44.61	0
6	242993	44.71	0
6	243549	44.81	0
6	244105	44.91	0
6	244669	45.01	0
6	245225	45.11	0
6	245781	45.21	0
6	246337	45.31	0
6	246893	45.41	0
6	247449	45.51	0
6	248005	45.61	0
6	248561	45.71	0
6	249117	45.81	0
6	249673	45.91	0
6	250237	46.01	0
6	250793	46.11	0
6	251349	46.21	0
6	251905	46.31	0
6	252461	46.41	0
6	253017	46.51	0
6	253573	46.61	0
6	254129	46.71	0
6	254685	46.81	0
6	255241	46.91	0
6	255805	47.01	0
6	256361	47.11	0
6	256917	47.21	0
6	257473	47.31	0
6	258029	47.41	0
6	258585	47.51	0
6	259141	47.61	0
6	259697	47.71	0
6	260253	47.81	0
6	260809	47.91	0
6	261373	48.01	0
6	261929	48.11	0
6	262485	48.21	0
6	263041	48.31	0
6	263597	48.41	0
6	264153	48.51	0
6	264709	48.61	0
6	265265	48.71	0
6	265821	48.81	0
6	266377	48.91	0
6	266941	49.01	0
6	267497	49.11	0
6	268053	49.21	0
6	268609	49.31	0
6	269165	49.41	0
6	269721	49.51	0
6	270277	49.61	0
6	270833	49.71	0
6	271389	49.81	0
6	271945	49.91	0
6	272509	50.01	0
6	273065	50.11	0
6	273621	50.21	0
6	274177	50.31	0
6	274733	50.41	0
6	275289	50.51	0
6	275845	50.61	0
6	276401	50.71	0
6	276957	50.81	0
6	277513	50.91	0
6	278077	51.01	0
6	278633	51.11	0
6	279189	51.21	0
6	279745	51.31	0
6	280301	51.41	0
6	280857	51.51	0
6	281413	51.61	0
6	281969	51.71	0
6	282525	51.81	0
6	283081	51.91	0
6	283645	52.01	0
6	284201	52.11	0
6	284757	52.21	0
6	285313	52.31	0
6	285869	52.41	0
6	286425	52.51	0
6	286981	52.61	0
6	287537	52.71	0
6	288093	52.81	0
6	288649	52.91	0
6	289213	53.01	0
6	289769	53.11	0
6	290325	53.21	0
6	290881	53.31	0
6	291437	53.41	0
6	291993	53.51	0
6	292549	53.61	0
6	293105	53.71	0
6	293661	53.81	0
6	294217	53.91	0
6	294781	54.01	0
6	295337	54.11	0
6	295893	54.21	0
6	296449	54.31	0
6	297005	54.41	0
6	297561	54.51	0
6	298117	54.61	0
6	298673	54.71	0
6	299229	54.81	0
6	299785	54.91	0
6	300349	55.01	0
6	300905	55.11	0
6	301461	55.21	0
6	302017	55.31	0
6	302573	55.41	0
6	303129	55.51	0
6	303685	55.61	0
6	304241	55.71	0
6	304797	55.81	0
6	305353	55.91	0
6	305917	56.01	0
6	306473	56.11	0
6	307029	56.21	0
6	307585	56.31	0
6	308141	56.41	0
6	308697	56.51	0
6	309253	56.61	0
6	309809	56.71	0
6	310365	56.81	0
6	310921	56.91	0
6	311485	57.01	0
6	312041	57.11	0
6	312597	57.21	0
6	313153	57.31	0
6	313709	57.41	0
6	314265	57.51	0
6	314821	57.61	0
6	315377	57.71	0
6	315933	57.81	0
6	316489	57.91	0
6	317053	58.01	0
6	317609	58.11	0
6	318165	58.21	0
6	318721	58.31	0
6	319277	58.41	0
6	319833	58.51	0
6	320389	58.61	0
6	320945	58.71	0
6	321501	58.81	0
6	322057	58.91	0
6	322621	59.01	0
6	323177	59.11	0
6	323733	59.21	0
6	324289	59.31	0
6	324845	59.41	0
6	325401	59.51	0
6	325957	59.61	0
6	326513	59.71	0
6	327069	59.81	0
6	327625	59.91	0
5	232	1.11	36.55
5	788	1.21	36.55
5	1344	1.31	36.55
5	1900	1.41	36.55
5	2456	1.51	36.55
5	3012	1.61	36.55
5	3568	1.71	36.55
5	4124	1.81	36.55
5	4680	1.91	36.55
5	5244	2.01	36.55
5	5800	2.11	36.55
5	6356	2.21	36.55
5	6912	2.31	36.55
5	7468	2.41	36.55
5	8024	2.51	36.55
5	8580	2.61	36.55
5	9136	2.71	36.55
5	9692	2.81	36.55
5	10248	2.91	36.55
5	10812	3.01	36.55
5	11368	3.11	36.55
5	11924	3.21	36.55
5	12480	3.31	36.55
5	13036	3.41	36.55
5	13592	3.51	36.55
5	14148	3.61	36.55
5	14704	3.71	36.55
5	15260	3.81	36.55
5	15816	3.91	36.55
5	16380	4.01	36.55
5	16936	4.11	36.55
5	17492	4.21	36.55
5	18048	4.31	36.55
5	18604	4.41	36.55
5	19160	4.51	36.55
5	19716	4.61	36.55
5	20272	4.71	36.55
5	20828	4.81	36.55
5	21384	4.91	36.55
5	21949	5.01	36.55
5	22505	5.11	36.55
5	23061	5.21	36.55
5	23617	5.31	36.55
5	24173	5.41	36.55
5	24729	5.51	36.55
5	25285	5.61	36.55
5	25841	5.71	36.55
5	26397	5.81	36.55
5	26953	5.91	36.55
5	27517	6.01	36.55
5	28073	6.11	36.55
5	28629	6.21	36.55
5	29185	6.31	36.55
5	29741	6.41	36.55
5	30297	6.51	36.55
5	30853	6.61	36.55
5	31409	6.71	36.55
5	31965	6.81	36.55
5	32521	6.91	36.55
5	33085	7.01	36.55
5	33641	7.11	36.55
5	34197	7.21	36.55
5	34753	7.31	36.55
5	35309	7.41	36.55
5	35865	7.51	36.55
5	36421	7.61	36.55
5	36977	7.71	36.55
5	37533	7.81	36.55
5	38089	7.91	36.55
5	38653	8.01	36.55
5	39209	8.11	36.55
5	39765	8.21	36.55
5	40321	8.31	36.55
5	40877	8.41	36.55
5	41433	8.51	36.55
5	41989	8.61	36.55
5	42545	8.71	36.55
5	43101	8.81	36.55
5	43657	8.91	36.55
5	44221	9.01	36.55
5	44777	9.11	36.55
5	45333	9.21	36.55
5	45889	9.31	36.55
5	46445	9.41	36.55
5	47001	9.51	36.55
5	47557	9.61	36.55
5	48113	9.71	36.55
5	48669	9.81	36.55
5	49225	9.91	36.55
5	49789	10.01	36.55
5	50345	10.11	36.55
5	50901	10.21	36.55
5	51457	10.31	36.55
5	52013	10.41	36.55
5	52569	10.51	36.55
5	53125	10.61	36.55
5	53681	10.71	36.55
5	54237	10.81	36.55
5	54793	10.91	36.55
5	55357	11.01	36.55
5	55913	11.11	36.55
5	56469	11.21	36.55
5	57025	11.31	36.55
5	57581	11.41	36.55
5	58137	11.51	36.55
5	58693	11.61	36.55
5	59249	11.71	36.55
5	59805	11.81	36.55
5	60361	11.91	36.55
5	60925	12.01	36.55
5	61481	12.11	36.55
5	62037	12.21	36.55
5	62593	12.31	36.55
5	63149	12.41	36.55
5	63705	12.51	36.55
5	64261	12.61	36.55
5	64817	12.71	36.55
5	65373	12.81	36.55
5	65929	12.91	36.55
5	66493	13.01	36.55
5	67049	13.11	36.55
5	67605	13.21	36.55
5	68161	13.31	36.55
5	68717	13.41	36.55
5	69273	13.51	36.55
5	69829	13.61	36.55
5	70385	13.71	36.55
5	70941	13.81	36.55
5	71497	13.91	36.55
5	72061	14.01	36.55
5	72617	14.11	36.55
5	73173	14.21	36.55
5	73729	14.31	36.55
5	74285	14.41	36.55
5	74841	14.51	36.55
5	75397	14.61	36.55
5	75953	14.71	36.55
5	76509	14.81	36.55
5	77065	14.91	36.55
5	77629	15.01	36.55
5	78185	15.11	36.55
5	78741	15.21	36.55
5	79297	15.31	36.55
5	79853	15.41	36.55
5	80409	15.51	36.55
5	80965	15.61	36.55
5	81521	15.71	36.55
5	82077	15.81	36.55
5	82633	15.91	36.55
5	83197	16.01	36.55
5	83753	16.11	36.55
5	84309	16.21	36.55
5	84865	16.31	36.55
5	85421	16.41	36.55
5	85977	16.51	36.55
5	86533	16.61	36.55
5	87089	16.71	36.55
5	87645	16.81	36.55
5	88201	16.91	36.55
5	88765	17.01	36.55
5	89321	17.11	36.55
5	89877	17.21	36.55
5	90433	17.31	36.55
5	90989	17.41	36.55
5	91545	17.51	36.55
5	92101	17.61	36.55
5	92657	17.71	36.55
5	93213	17.81	36.55
5	93769	17.91	36.55
5	94333	18.01	36.55
5	94889	18.11	36.55
5	95445	18.21	36.55
5	96001	18.31	36.55
5	96557	18.41	36.55
5	97113	18.51	36.55
5	97669	18.61	36.55
5	98225	18.71	36.55
5	98781	18.81	36.55
5	99337	18.91	36.55
5	99901	19.01	36.55
5	100457	19.11	36.55
5	101013	19.21	36.55
5	101569	19.31	36.55
5	102125	19.41	36.55
5	102681	19.51	36.55
5	103237	19.61	36.55
5	103793	19.71	36.55
5	104349	19.81	36.55
5	104905	19.91	36.55
5	105469	20.01	36.55
5	106025	20.11	36.55
5	106581	20.21	36.55
5	107137	20.31	36.55
5	107693	20.41	36.55
5	108249	20.51	36.55
5	108805	20.61	36.55
5	109361	20.71	36.55
5	109917	20.81	36.55
5	110473	20.91	36.55
5	111037	21.01	36.55
5	111593	21.11	36.55
5	112149	21.21	36.55
5	112705	21.31	36.55
5	113261	21.41	36.55
5	113817	21.51	36.55
5	114373	21.61	36.55
5	114929	21.71	36.55
5	115485	21.81	36.55
5	116041	21.91	36.55
5	116605	22.01	36.55
5	117161	22.11	36.55
5	117717	22.21	36.55
5	118273	22.31	36.55
5	118829	22.41	36.55
5	119385	22.51	36.55
5	119941	22.61	36.55
5	120497	22.71	36.55
5	121053	22.81	36.55
5	121609	22.91	36.55
5	122173	23.01	36.55
5	122729	23.11	36.55
5	123285	23.21	36.55
5	123841	23.31	36.55
5	124397	23.41	36.55
5	124953	23.51	36.55
5	125509	23.61	36.55
5	126065	23.71	36.55
5	126621	23.81	36.55
5	127177	23.91	36.55
5	127741	24.01	36.55
5	128297	24.11	36.55
5	128853	24.21	36.55
5	129409	24.31	36.55
5	129965	24.41	36.55
5	130521	24.51	36.55
5	131077	24.61	36.55
5	131633	24.71	36.55
5	132189	24.81	36.55
5	132745	24.91	36.55
5	133309	25.01	36.55
5	133865	25.11	36.55
5	134421	25.21	36.55
5	134977	25.31	36.55
5	135533	25.41	36.55
5	136089	25.51	36.55
5	136645	25.61	36.55
5	137201	25.71	36.55
5	137757	25.81	36.55
5	138313	25.91	36.55
5	138877	26.01	36.55
5	139433	26.11	36.55
5	139989	26.21	36.55
5	140545	26.31	36.55
5	141101	26.41	36.55
5	141657	26.51	36.55
5	142213	26.61	36.55
5	142769	26.71	36.55
5	143325	26.81	36.55
5	143881	26.91	36.55
5	144445	27.01	36.55
5	145001	27.11	36.55
5	145557	27.21	36.55
5	146113	27.31	36.55
5	146669	27.41	36.55
5	147225	27.51	36.55
5	147781	27.61	36.55
5	148337	27.71	36.55
5	148893	27.81	36.55
5	149449	27.91	36.55
5	150013	28.01	36.55
5	150569	28.11	36.55
5	151125	28.21	36.55
5	151681	28.31	36.55
5	152237	28.41	36.55
5	152793	28.51	36.55
5	153349	28.61	36.55
5	153905	28.71	36.55
5	154461	28.81	36.55
5	155017	28.91	36.55
5	155581	29.01	36.55
5	156137	29.11	36.55
5	156693	29.21	36.55
5	157249	29.31	36.55
5	157805	29.41	36.55
5	158361	29.51	36.55
5	158917	29.61	36.55
5	159473	29.71	36.55
5	160029	29.81	36.55
5	160585	29.91	36.55
5	161149	30.01	36.55
5	161705	30.11	36.55
5	162261	30.21	36.55
5	162817	30.31	36.55
5	163373	30.41	36.55
5	163929	30.51	36.55
5	164485	30.61	36.55
5	165041	30.71	36.55
5	165597	30.81	36.55
5	166153	30.91	36.55
5	166717	31.01	36.55
5	167273	31.11	36.55
5	167829	31.21	36.55
5	168385	31.31	36.55
5	168941	31.41	36.55
5	169497	31.51	36.55
5	170053	31.61	36.55
5	170609	31.71	36.55
5	171165	31.81	36.55
5	171721	31.91	36.55
5	172285	32.01	36.55
5	172841	32.11	36.55
5	173397	32.21	36.55
5	173953	32.31	36.55
5	174509	32.41	36.55
5	175065	32.51	36.55
5	175621	32.61	36.55
5	176177	32.71	36.55
5	176733	32.81	36.55
5	177289	32.91	36.55
5	177853	33.01	36.55
5	178409	33.11	36.55
5	178965	33.21	36.55
5	179521	33.31	36.55
5	180077	33.41	36.55
5	180633	33.51	36.55
5	181189	33.61	36.55
5	181745	33.71	36.55
5	182301	33.81	36.55
5	182857	33.91	36.55
5	183421	34.01	36.55
5	183977	34.11	36.55
5	184533	34.21	36.55
5	185089	34.31	36.55
5	185645	34.41	36.55
5	186201	34.51	36.55
5	186757	34.61	36.55
5	187313	34.71	36.55
5	187869	34.81	36.55
5	188425	34.91	36.55
5	188989	35.01	36.55
5	189545	35.11	36.55
5	190101	35.21	36.55
5	190657	35.31	36.55
5	191213	35.41	36.55
5	191769	35.51	36.55
5	192325	35.61	36.55
5	192881	35.71	36.55
5	193437	35.81	36.55
5	193993	35.91	36.55
5	194557	36.01	36.55
5	195113	36.11	36.55
5	195669	36.21	36.55
5	196225	36.31	36.55
5	196781	36.41	36.55
5	197337	36.51	36.55
5	197893	36.61	36.55
5	198449	36.71	36.55
5	199005	36.81	36.55
5	199561	36.91	36.55
5	200125	37.01	36.55
5	200681	37.11	36.55
5	201237	37.21	36.55
5	201793	37.31	36.55
5	202349	37.41	36.55
5	202905	37.51	36.55
5	203461	37.61	36.55
5	204017	37.71	36.55
5	204573	37.81	36.55
5	205129	37.91	36.55
5	205693	38.01	36.55
5	206249	38.11	36.55
5	206805	38.21	36.55
5	207361	38.31	36.55
5	207917	38.41	36.55
5	208473	38.51	36.55
5	209029	38.61	36.55
5	209585	38.71	36.55
5	210141	38.81	36.55
5	210697	38.91	36.55
5	211261	39.01	36.55
5	211817	39.11	36.55
5	212373	39.21	36.55
5	212929	39.31	36.55
5	213485	39.41	36.55
5	214041	39.51	36.55
5	214597	39.61	36.55
5	215153	39.71	36.55
5	215709	39.81	36.55
5	216265	39.91	36.55
5	216829	40.01	36.55
5	217385	40.11	36.55
5	217941	40.21	36.55
5	218497	40.31	36.55
5	219053	40.41	36.55
5	219609	40.51	36.55
5	220165	40.61	36.55
5	220721	40.71	36.55
5	221277	40.81	36.55
5	221833	40.91	36.55
5	222397	41.01	36.55
5	222953	41.11	36.55
5	223509	41.21	36.55
5	224065	41.31	36.55
5	224621	41.41	36.55
5	225177	41.51	36.55
5	225733	41.61	36.55
5	226289	41.71	36.55
5	226845	41.81	36.55
5	227401	41.91	36.55
5	227965	42.01	36.55
5	228521	42.11	36.55
5	229077	42.21	36.55
5	229633	42.31	36.55
5	230189	42.41	36.55
5	230745	42.51	36.55
5	231301	42.61	36.55
5	231857	42.71	36.55
5	232413	42.81	36.55
5	232969	42.91	36.55
5	233533	43.01	36.55
5	234089	43.11	36.55
5	234645	43.21	36.55
5	235201	43.31	36.55
5	235757	43.41	36.55
5	236313	43.51	36.55
5	236869	43.61	36.55
5	237425	43.71	36.55
5	237981	43.81	36.55
5	238537	43.91	36.55
5	239101	44.01	36.55
5	239657	44.11	36.55
5	240213	44.21	36.55
5	240769	44.31	36.55
5	241325	44.41	36.55
5	241881	44.51	36.55
5	242437	44.61	36.55
5	242993	44.71	36.55
5	243549	44.81	36.55
5	244105	44.91	36.55
5	244669	45.01	36.55
5	245225	45.11	36.55
5	245781	45.21	36.55
5	246337	45.31	36.55
5	246893	45.41	36.55
5	247449	45.51	36.55
5	248005	45.61	36.55
5	248561	45.71	36.55
5	249117	45.81	36.55
5	249673	45.91	36.55
5	250237	46.01	36.55
5	250793	46.11	36.55
5	251349	46.21	36.55
5	251905	46.31	36.55
5	252461	46.41	36.55
5	253017	46.51	36.55
5	253573	46.61	36.55
5	254129	46.71	36.55
5	254685	46.81	36.55
5	255241	46.91	36.55
5	255805	47.01	36.55
5	256361	47.11	36.55
5	256917	47.21	36.55
5	257473	47.31	36.55
5	258029	47.41	36.55
5	258585	47.51	36.55
5	259141	47.61	36.55
5	259697	47.71	36.55
5	260253	47.81	36.55
5	260809	47.91	36.55
5	261373	48.01	36.55
5	261929	48.11	36.55
5	262485	48.21	36.55
5	263041	48.31	36.55
5	263597	48.41	36.55
5	264153	48.51	36.55
5	264709	48.61	36.55
5	265265	48.71	36.55
5	265821	48.81	36.55
5	266377	48.91	36.55
5	266941	49.01	36.55
5	267497	49.11	36.55
5	268053	49.21	36.55
5	268609	49.31	36.55
5	269165	49.41	36.55
5	269721	49.51	36.55
5	270277	49.61	36.55
5	270833	49.71	36.55
5	271389	49.81	36.55
5	271945	49.91	36.55
5	272509	50.01	36.55
5	273065	50.11	36.55
5	273621	50.21	36.55
5	274177	50.31	36.55
5	274733	50.41	36.55
5	275289	50.51	36.55
5	275845	50.61	36.55
5	276401	50.71	36.55
5	276957	50.81	36.55
5	277513	50.91	36.55
5	278077	51.01	36.55
5	278633	51.11	36.55
5	279189	51.21	36.55
5	279745	51.31	36.55
5	280301	51.41	36.55
5	280857	51.51	36.55
5	281413	51.61	36.55
5	281969	51.71	36.55
5	282525	51.81	36.55
5	283081	51.91	36.55
5	283645	52.01	36.55
5	284201	52.11	36.55
5	284757	52.21	36.55
5	285313	52.31	36.55
5	285869	52.41	36.55
5	286425	52.51	36.55
5	286981	52.61	36.55
5	287537	52.71	36.55
5	288093	52.81	36.55
5	288649	52.91	36.55
5	289213	53.01	36.55
5	289769	53.11	36.55
5	290325	53.21	36.55
5	290881	53.31	36.55
5	291437	53.41	36.55
5	291993	53.51	36.55
5	292549	53.61	36.55
5	293105	53.71	36.55
5	293661	53.81	36.55
5	294217	53.91	36.55
5	294781	54.01	36.55
5	295337	54.11	36.55
5	295893	54.21	36.55
5	296449	54.31	36.55
5	297005	54.41	36.55
5	297561	54.51	36.55
5	298117	54.61	36.55
5	298673	54.71	36.55
5	299229	54.81	36.55
5	299785	54.91	36.55
5	300349	55.01	36.55
5	300905	55.11	36.55
5	301461	55.21	36.55
5	302017	55.31	36.55
5	302573	55.41	36.55
5	303129	55.51	36.55
5	303685	55.61	36.55
5	304241	55.71	36.55
5	304797	55.81	36.55
5	305353	55.91	36.55
5	305917	56.01	36.55
5	306473	56.11	36.55
5	307029	56.21	36.55
5	307585	56.31	36.55
5	308141	56.41	36.55
5	308697	56.51	36.55
5	309253	56.61	36.55
5	309809	56.71	36.55
5	310365	56.81	36.55
5	310921	56.91	36.55
5	311485	57.01	36.55
5	312041	57.11	36.55
5	312597	57.21	36.55
5	313153	57.31	36.55
5	313709	57.41	36.55
5	314265	57.51	36.55
5	314821	57.61	36.55
5	315377	57.71	36.55
5	315933	57.81	36.55
5	316489	57.91	36.55
5	317053	58.01	36.55
5	317609	58.11	36.55
5	318165	58.21	36.55
5	318721	58.31	36.55
5	319277	58.41	36.55
5	319833	58.51	36.55
5	320389	58.61	36.55
5	320945	58.71	36.55
5	321501	58.81	36.55
5	322057	58.91	36.55
5	322621	59.01	36.55
5	323177	59.11	36.55
5	323733	59.21	36.55
5	324289	59.31	36.55
5	324845	59.41	36.55
5	325401	59.51	36.55
5	325957	59.61	36.55
5	326513	59.71	36.55
5	327069	59.81	36.55
5	327625	59.91	36.55
4	232	1.11	99.217642974587
4	788	1.21	101.99542083538
4	1344	1.31	104.77319869345
4	1900	1.41	107.55097654785
4	2456	1.51	110.32875439787
4	3012	1.61	113.106532243
4	3568	1.71	115.88431008291
4	4124	1.81	118.66208791742
4	4680	1.91	121.43986574648
4	5244	2.01	124.21764357016
4	5800	2.11	126.9954213886
4	6356	2.21	129.773199202
4	6912	2.31	132.55097701064
4	7468	2.41	135.32875481482
4	8024	2.51	138.10653261486
4	8580	2.61	140.88431041112
4	9136	2.71	143.66208820393
4	9692	2.81	146.43986599364
4	10248	2.91	149.21764378061
4	10812	3.01	151.99542156516
4	11368	3.11	154.77319934759
4	11924	3.21	157.55097712822
4	12480	3.31	160.3287549073
4	13036	3.41	163.1065326851
4	13592	3.51	165.88431046185
4	14148	3.61	168.66208823775
4	14704	3.71	171.43986601299
4	15260	3.81	174.21764378773
4	15816	3.91	176.99542156211
4	16380	4.01	179.77319933627
4	16936	4.11	182.55097711031
4	17492	4.21	185.32875488431
4	18048	4.31	188.10653265835
4	18604	4.41	190.8843104325
4	19160	4.51	193.66208820679
4	19716	4.61	196.43986598126
4	20272	4.71	199.21764375594
4	20828	4.81	201.99542153085
4	21384	4.91	204.773199306
4	21949	5.01	207.55094570884
4	22505	5.11	210.32351041363
4	23061	5.21	213.07809323369
4	23617	5.31	215.80355250917
4	24173	5.41	218.49074819836
4	24729	5.51	221.13218228357
4	25285	5.61	223.72170377876
4	25841	5.71	226.25426673297
4	26397	5.81	228.72573170891
4	26953	5.91	231.13270292624
4	27517	6.01	233.47239466234
4	28073	6.11	235.74252165438
4	28629	6.21	237.94120919089
4	29185	6.31	240.0669193555
4	29741	6.41	242.11839052114
4	30297	6.51	244.09458771417
4	30853	6.61	245.99466189574
4	31409	6.71	247.81791655827
4	31965	6.81	249.56378032294
4	32521	6.91	251.23178446013
4	33085	7.01	252.82154444826
4	33641	7.11	254.33274484573
4	34197	7.21	255.76512688056
4	34753	7.31	257.11847826958
4	35309	7.41	258.39262486667
4	35865	7.51	259.58742381134
4	36421	7.61	260.70275790825
4	36977	7.71	261.73853101638
4	37533	7.81	262.69466426661
4	38089	7.91	263.57109295882
4	38653	8.01	264.36776401635
4	39209	8.11	265.08463389784
4	39765	8.21	265.72166688425
4	40321	8.31	266.2788336735
4	40877	8.41	266.75611022767
4	41433	8.51	267.15347682732
4	41989	8.61	267.47091729562
4	42545	8.71	267.70841836194
4	43101	8.81	267.86596913974
4	43657	8.91	267.94356069827
4	44221	9.01	267.95156973462
4	44777	9.11	267.95156973462
4	45333	9.21	267.95156973462
4	45889	9.31	267.95156973462
4	46445	9.41	267.95156973462
4	47001	9.51	267.95156973462
4	47557	9.61	267.95156973462
4	48113	9.71	267.95156973462
4	48669	9.81	267.95156973462
4	49225	9.91	267.95156973462
4	49789	10.01	267.95156973462
4	50345	10.11	267.95156973462
4	50901	10.21	267.95156973462
4	51457	10.31	267.95156973462
4	52013	10.41	267.95156973462
4	52569	10.51	267.95156973462
4	53125	10.61	267.95156973462
4	53681	10.71	267.95156973462
4	54237	10.81	267.95156973462
4	54793	10.91	267.95156973462
4	55357	11.01	267.95156973462
4	55913	11.11	267.95156973462
4	56469	11.21	267.95156973462
4	57025	11.31	267.95156973462
4	57581	11.41	267.95156973462
4	58137	11.51	267.95156973462
4	58693	11.61	267.95156973462
4	59249	11.71	267.95156973462
4	59805	11.81	267.95156973462
4	60361	11.91	267.95156973462
4	60925	12.01	267.95156973462
4	61481	12.11	267.95156973462
4	62037	12.21	267.95156973462
4	62593	12.31	267.95156973462
4	63149	12.41	267.95156973462
4	63705	12.51	267.95156973462
4	64261	12.61	267.95156973462
4	64817	12.71	267.95156973462
4	65373	12.81	267.95156973462
4	65929	12.91	267.95156973462
4	66493	13.01	267.95156973462
4	67049	13.11	267.95156973462
4	67605	13.21	267.95156973462
4	68161	13.31	267.95156973462
4	68717	13.41	267.95156973462
4	69273	13.51	267.95156973462
4	69829	13.61	267.95156973462
4	70385	13.71	267.95156973462
4	70941	13.81	267.95156973462
4	71497	13.91	267.95156973462
4	72061	14.01	267.95156973462
4	72617	14.11	267.95156973462
4	73173	14.21	267.95156973462
4	73729	14.31	267.95156973462
4	74285	14.41	267.95156973462
4	74841	14.51	267.95156973462
4	75397	14.61	267.95156973462
4	75953	14.71	267.95156973462
4	76509	14.81	267.95156973462
4	77065	14.91	267.95156973462
4	77629	15.01	267.95156973462
4	78185	15.11	267.95156973462
4	78741	15.21	267.95156973462
4	79297	15.31	267.95156973462
4	79853	15.41	267.95156973462
4	80409	15.51	267.95156973462
4	80965	15.61	267.95156973462
4	81521	15.71	267.95156973462
4	82077	15.81	267.95156973462
4	82633	15.91	267.95156973462
4	83197	16.01	267.95156973462
4	83753	16.11	267.95156973462
4	84309	16.21	267.95156973462
4	84865	16.31	267.95156973462
4	85421	16.41	267.95156973462
4	85977	16.51	267.95156973462
4	86533	16.61	267.95156973462
4	87089	16.71	267.95156973462
4	87645	16.81	267.95156973462
4	88201	16.91	267.95156973462
4	88765	17.01	267.95156973462
4	89321	17.11	267.95156973462
4	89877	17.21	267.95156973462
4	90433	17.31	267.95156973462
4	90989	17.41	267.95156973462
4	91545	17.51	267.95156973462
4	92101	17.61	267.95156973462
4	92657	17.71	267.95156973462
4	93213	17.81	267.95156973462
4	93769	17.91	267.95156973462
4	94333	18.01	267.95156973462
4	94889	18.11	267.95156973462
4	95445	18.21	267.95156973462
4	96001	18.31	267.95156973462
4	96557	18.41	267.95156973462
4	97113	18.51	267.95156973462
4	97669	18.61	267.95156973462
4	98225	18.71	267.95156973462
4	98781	18.81	267.95156973462
4	99337	18.91	267.95156973462
4	99901	19.01	267.95156973462
4	100457	19.11	267.95156973462
4	101013	19.21	267.95156973462
4	101569	19.31	267.95156973462
4	102125	19.41	267.95156973462
4	102681	19.51	267.95156973462
4	103237	19.61	267.95156973462
4	103793	19.71	267.95156973462
4	104349	19.81	267.95156973462
4	104905	19.91	267.95156973462
4	105469	20.01	267.95156973462
4	106025	20.11	267.95156973462
4	106581	20.21	267.95156973462
4	107137	20.31	267.95156973462
4	107693	20.41	267.95156973462
4	108249	20.51	267.95156973462
4	108805	20.61	267.95156973462
4	109361	20.71	267.95156973462
4	109917	20.81	267.95156973462
4	110473	20.91	267.95156973462
4	111037	21.01	267.95156973462
4	111593	21.11	267.95156973462
4	112149	21.21	267.95156973462
4	112705	21.31	267.95156973462
4	113261	21.41	267.95156973462
4	113817	21.51	267.95156973462
4	114373	21.61	267.95156973462
4	114929	21.71	267.95156973462
4	115485	21.81	267.95156973462
4	116041	21.91	267.95156973462
4	116605	22.01	267.95156973462
4	117161	22.11	267.95156973462
4	117717	22.21	267.95156973462
4	118273	22.31	267.95156973462
4	118829	22.41	267.95156973462
4	119385	22.51	267.95156973462
4	119941	22.61	267.95156973462
4	120497	22.71	267.95156973462
4	121053	22.81	267.95156973462
4	121609	22.91	267.95156973462
4	122173	23.01	267.95156973462
4	122729	23.11	267.95156973462
4	123285	23.21	267.95156973462
4	123841	23.31	267.95156973462
4	124397	23.41	267.95156973462
4	124953	23.51	267.95156973462
4	125509	23.61	267.95156973462
4	126065	23.71	267.95156973462
4	126621	23.81	267.95156973462
4	127177	23.91	267.95156973462
4	127741	24.01	267.95156973462
4	128297	24.11	267.95156973462
4	128853	24.21	267.95156973462
4	129409	24.31	267.95156973462
4	129965	24.41	267.95156973462
4	130521	24.51	267.95156973462
4	131077	24.61	267.95156973462
4	131633	24.71	267.95156973462
4	132189	24.81	267.95156973462
4	132745	24.91	267.95156973462
4	133309	25.01	267.95156973462
4	133865	25.11	267.95156973462
4	134421	25.21	267.95156973462
4	134977	25.31	267.95156973462
4	135533	25.41	267.95156973462
4	136089	25.51	267.95156973462
4	136645	25.61	267.95156973462
4	137201	25.71	267.95156973462
4	137757	25.81	267.95156973462
4	138313	25.91	267.95156973462
4	138877	26.01	267.95156973462
4	139433	26.11	267.95156973462
4	139989	26.21	267.95156973462
4	140545	26.31	267.95156973462
4	141101	26.41	267.95156973462
4	141657	26.51	267.95156973462
4	142213	26.61	267.95156973462
4	142769	26.71	267.95156973462
4	143325	26.81	267.95156973462
4	143881	26.91	267.95156973462
4	144445	27.01	267.95156973462
4	145001	27.11	267.95156973462
4	145557	27.21	267.95156973462
4	146113	27.31	267.95156973462
4	146669	27.41	267.95156973462
4	147225	27.51	267.95156973462
4	147781	27.61	267.95156973462
4	148337	27.71	267.95156973462
4	148893	27.81	267.95156973462
4	149449	27.91	267.95156973462
4	150013	28.01	267.95156973462
4	150569	28.11	267.95156973462
4	151125	28.21	267.95156973462
4	151681	28.31	267.95156973462
4	152237	28.41	267.95156973462
4	152793	28.51	267.95156973462
4	153349	28.61	267.95156973462
4	153905	28.71	267.95156973462
4	154461	28.81	267.95156973462
4	155017	28.91	267.95156973462
4	155581	29.01	267.95156973462
4	156137	29.11	267.95156973462
4	156693	29.21	267.95156973462
4	157249	29.31	267.95156973462
4	157805	29.41	267.95156973462
4	158361	29.51	267.95156973462
4	158917	29.61	267.95156973462
4	159473	29.71	267.95156973462
4	160029	29.81	267.95156973462
4	160585	29.91	267.95156973462
4	161149	30.01	267.95156973462
4	161705	30.11	267.95156973462
4	162261	30.21	267.95156973462
4	162817	30.31	267.95156973462
4	163373	30.41	267.95156973462
4	163929	30.51	267.95156973462
4	164485	30.61	267.95156973462
4	165041	30.71	267.95156973462
4	165597	30.81	267.95156973462
4	166153	30.91	267.95156973462
4	166717	31.01	267.95156973462
4	167273	31.11	267.95156973462
4	167829	31.21	267.95156973462
4	168385	31.31	267.95156973462
4	168941	31.41	267.95156973462
4	169497	31.51	267.95156973462
4	170053	31.61	267.95156973462
4	170609	31.71	267.95156973462
4	171165	31.81	267.95156973462
4	171721	31.91	267.95156973462
4	172285	32.01	267.95156973462
4	172841	32.11	267.95156973462
4	173397	32.21	267.95156973462
4	173953	32.31	267.95156973462
4	174509	32.41	267.95156973462
4	175065	32.51	267.95156973462
4	175621	32.61	267.95156973462
4	176177	32.71	267.95156973462
4	176733	32.81	267.95156973462
4	177289	32.91	267.95156973462
4	177853	33.01	267.95156973462
4	178409	33.11	267.95156973462
4	178965	33.21	267.95156973462
4	179521	33.31	267.95156973462
4	180077	33.41	267.95156973462
4	180633	33.51	267.95156973462
4	181189	33.61	267.95156973462
4	181745	33.71	267.95156973462
4	182301	33.81	267.95156973462
4	182857	33.91	267.95156973462
4	183421	34.01	267.95156973462
4	183977	34.11	267.95156973462
4	184533	34.21	267.95156973462
4	185089	34.31	267.95156973462
4	185645	34.41	267.95156973462
4	186201	34.51	267.95156973462
4	186757	34.61	267.95156973462
4	187313	34.71	267.95156973462
4	187869	34.81	267.95156973462
4	188425	34.91	267.95156973462
4	188989	35.01	267.95156973462
4	189545	35.11	267.95156973462
4	190101	35.21	267.95156973462
4	190657	35.31	267.95156973462
4	191213	35.41	267.95156973462
4	191769	35.51	267.95156973462
4	192325	35.61	267.95156973462
4	192881	35.71	267.95156973462
4	193437	35.81	267.95156973462
4	193993	35.91	267.95156973462
4	194557	36.01	267.95156973462
4	195113	36.11	267.95156973462
4	195669	36.21	267.95156973462
4	196225	36.31	267.95156973462
4	196781	36.41	267.95156973462
4	197337	36.51	267.95156973462
4	197893	36.61	267.95156973462
4	198449	36.71	267.95156973462
4	199005	36.81	267.95156973462
4	199561	36.91	267.95156973462
4	200125	37.01	267.95156973462
4	200681	37.11	267.95156973462
4	201237	37.21	267.95156973462
4	201793	37.31	267.95156973462
4	202349	37.41	267.95156973462
4	202905	37.51	267.95156973462
4	203461	37.61	267.95156973462
4	204017	37.71	267.95156973462
4	204573	37.81	267.95156973462
4	205129	37.91	267.95156973462
4	205693	38.01	267.95156973462
4	206249	38.11	267.95156973462
4	206805	38.21	267.95156973462
4	207361	38.31	267.95156973462
4	207917	38.41	267.95156973462
4	208473	38.51	267.95156973462
4	209029	38.61	267.95156973462
4	209585	38.71	267.95156973462
4	210141	38.81	267.95156973462
4	210697	38.91	267.95156973462
4	211261	39.01	267.95156973462
4	211817	39.11	267.95156973462
4	212373	39.21	267.95156973462
4	212929	39.31	267.95156973462
4	213485	39.41	267.95156973462
4	214041	39.51	267.95156973462
4	214597	39.61	267.95156973462
4	215153	39.71	267.95156973462
4	215709	39.81	267.95156973462
4	216265	39.91	267.95156973462
4	216829	40.01	267.95156973462
4	217385	40.11	267.95156973462
4	217941	40.21	267.95156973462
4	218497	40.31	267.95156973462
4	219053	40.41	267.95156973462
4	219609	40.51	267.95156973462
4	220165	40.61	267.95156973462
4	220721	40.71	267.95156973462
4	221277	40.81	267.95156973462
4	221833	40.91	267.95156973462
4	222397	41.01	267.95156973462
4	222953	41.11	267.95156973462
4	223509	41.21	267.95156973462
4	224065	41.31	267.95156973462
4	224621	41.41	267.95156973462
4	225177	41.51	267.95156973462
4	225733	41.61	267.95156973462
4	226289	41.71	267.95156973462
4	226845	41.81	267.95156973462
4	227401	41.91	267.95156973462
4	227965	42.01	267.95156973462
4	228521	42.11	267.95156973462
4	229077	42.21	267.95156973462
4	229633	42.31	267.95156973462
4	230189	42.41	267.95156973462
4	230745	42.51	267.95156973462
4	231301	42.61	267.95156973462
4	231857	42.71	267.95156973462
4	232413	42.81	267.95156973462
4	232969	42.91	267.95156973462
4	233533	43.01	267.95156973462
4	234089	43.11	267.95156973462
4	234645	43.21	267.95156973462
4	235201	43.31	267.95156973462
4	235757	43.41	267.95156973462
4	236313	43.51	267.95156973462
4	236869	43.61	267.95156973462
4	237425	43.71	267.95156973462
4	237981	43.81	267.95156973462
4	238537	43.91	267.95156973462
4	239101	44.01	267.95156973462
4	239657	44.11	267.95156973462
4	240213	44.21	267.95156973462
4	240769	44.31	267.95156973462
4	241325	44.41	267.95156973462
4	241881	44.51	267.95156973462
4	242437	44.61	267.95156973462
4	242993	44.71	267.95156973462
4	243549	44.81	267.95156973462
4	244105	44.91	267.95156973462
4	244669	45.01	267.95156973462
4	245225	45.11	267.95156973462
4	245781	45.21	267.95156973462
4	246337	45.31	267.95156973462
4	246893	45.41	267.95156973462
4	247449	45.51	267.95156973462
4	248005	45.61	267.95156973462
4	248561	45.71	267.95156973462
4	249117	45.81	267.95156973462
4	249673	45.91	267.95156973462
4	250237	46.01	267.95156973462
4	250793	46.11	267.95156973462
4	251349	46.21	267.95156973462
4	251905	46.31	267.95156973462
4	252461	46.41	267.95156973462
4	253017	46.51	267.95156973462
4	253573	46.61	267.95156973462
4	254129	46.71	267.95156973462
4	254685	46.81	267.95156973462
4	255241	46.91	267.95156973462
4	255805	47.01	267.95156973462
4	256361	47.11	267.95156973462
4	256917	47.21	267.95156973462
4	257473	47.31	267.95156973462
4	258029	47.41	267.95156973462
4	258585	47.51	267.95156973462
4	259141	47.61	267.95156973462
4	259697	47.71	267.95156973462
4	260253	47.81	267.95156973462
4	260809	47.91	267.95156973462
4	261373	48.01	267.95156973462
4	261929	48.11	267.95156973462
4	262485	48.21	267.95156973462
4	263041	48.31	267.95156973462
4	263597	48.41	267.95156973462
4	264153	48.51	267.95156973462
4	264709	48.61	267.95156973462
4	265265	48.71	267.95156973462
4	265821	48.81	267.95156973462
4	266377	48.91	267.95156973462
4	266941	49.01	267.95156973462
4	267497	49.11	267.95156973462
4	268053	49.21	267.95156973462
4	268609	49.31	267.95156973462
4	269165	49.41	267.95156973462
4	269721	49.51	267.95156973462
4	270277	49.61	267.95156973462
4	270833	49.71	267.95156973462
4	271389	49.81	267.95156973462
4	271945	49.91	267.95156973462
4	272509	50.01	267.95156973462
4	273065	50.11	267.95156973462
4	273621	50.21	267.95156973462
4	274177	50.31	267.95156973462
4	274733	50.41	267.95156973462
4	275289	50.51	267.95156973462
4	275845	50.61	267.95156973462
4	276401	50.71	267.95156973462
4	276957	50.81	267.95156973462
4	277513	50.91	267.95156973462
4	278077	51.01	267.95156973462
4	278633	51.11	267.95156973462
4	279189	51.21	267.95156973462
4	279745	51.31	267.95156973462
4	280301	51.41	267.95156973462
4	280857	51.51	267.95156973462
4	281413	51.61	267.95156973462
4	281969	51.71	267.95156973462
4	282525	51.81	267.95156973462
4	283081	51.91	267.95156973462
4	283645	52.01	267.95156973462
4	284201	52.11	267.95156973462
4	284757	52.21	267.95156973462
4	285313	52.31	267.95156973462
4	285869	52.41	267.95156973462
4	286425	52.51	267.95156973462
4	286981	52.61	267.95156973462
4	287537	52.71	267.95156973462
4	288093	52.81	267.95156973462
4	288649	52.91	267.95156973462
4	289213	53.01	267.95156973462
4	289769	53.11	267.95156973462
4	290325	53.21	267.95156973462
4	290881	53.31	267.95156973462
4	291437	53.41	267.95156973462
4	291993	53.51	267.95156973462
4	292549	53.61	267.95156973462
4	293105	53.71	267.95156973462
4	293661	53.81	267.95156973462
4	294217	53.91	267.95156973462
4	294781	54.01	267.95156973462
4	295337	54.11	267.95156973462
4	295893	54.21	267.95156973462
4	296449	54.31	267.95156973462
4	297005	54.41	267.95156973462
4	297561	54.51	267.95156973462
4	298117	54.61	267.95156973462
4	298673	54.71	267.95156973462
4	299229	54.81	267.95156973462
4	299785	54.91	267.95156973462
4	300349	55.01	267.95156973462
4	300905	55.11	267.95156973462
4	301461	55.21	267.95156973462
4	302017	55.31	267.95156973462
4	302573	55.41	267.95156973462
4	303129	55.51	267.95156973462
4	303685	55.61	267.95156973462
4	304241	55.71	267.95156973462
4	304797	55.81	267.95156973462
4	305353	55.91	267.95156973462
4	305917	56.01	267.95156973462
4	306473	56.11	267.95156973462
4	307029	56.21	267.95156973462
4	307585	56.31	267.95156973462
4	308141	56.41	267.95156973462
4	308697	56.51	267.95156973462
4	309253	56.61	267.95156973462
4	309809	56.71	267.95156973462
4	310365	56.81	267.95156973462
4	310921	56.91	267.95156973462
4	311485	57.01	267.95156973462
4	312041	57.11	267.95156973462
4	312597	57.21	267.95156973462
4	313153	57.31	267.95156973462
4	313709	57.41	267.95156973462
4	314265	57.51	267.95156973462
4	314821	57.61	267.95156973462
4	315377	57.71	267.95156973462
4	315933	57.81	267.95156973462
4	316489	57.91	267.95156973462
4	317053	58.01	267.95156973462
4	317609	58.11	267.95156973462
4	318165	58.21	267.95156973462
4	318721	58.31	267.95156973462
4	319277	58.41	267.95156973462
4	319833	58.51	267.95156973462
4	320389	58.61	267.95156973462
4	320945	58.71	267.95156973462
4	321501	58.81	267.95156973462
4	322057	58.91	267.95156973462
4	322621	59.01	267.95156973462
4	323177	59.11	267.95156973462
4	323733	59.21	267.95156973462
4	324289	59.31	267.95156973462
4	324845	59.41	267.95156973462
4	325401	59.51	267.95156973462
4	325957	59.61	267.95156973462
4	326513	59.71	267.95156973462
4	327069	59.81	267.95156973462
4	327625	59.91	267.95156973462
3	232	1.11	27.777778619612
3	788	1.21	27.777778599967
3	1344	1.31	27.777778569105
3	1900	1.41	27.777778529595
3	2456	1.51	27.777778483698
3	3012	1.61	27.777778433385
3	3568	1.71	27.777778380352
3	4124	1.81	27.777778326039
3	4680	1.91	27.77777827165
3	5244	2.01	27.777778218173
3	5800	2.11	27.777778166406
3	6356	2.21	27.777778116967
3	6912	2.31	27.777778070327
3	7468	2.41	27.777778026819
3	8024	2.51	27.77777798666
3	8580	2.61	27.77777794997
3	9136	2.71	27.777777916782
3	9692	2.81	27.777777887063
3	10248	2.91	27.777777860724
3	10812	3.01	27.777777837628
3	11368	3.11	27.777777817609
3	11924	3.21	27.777777800471
3	12480	3.31	27.777777786005
3	13036	3.41	27.777777773991
3	13592	3.51	27.777777764203
3	14148	3.61	27.777777756416
3	14704	3.71	27.777777750412
3	15260	3.81	27.777777745977
3	15816	3.91	27.77777774291
3	16380	4.01	27.777777741018
3	16936	4.11	27.777777740126
3	17492	4.21	27.77777774007
3	18048	4.31	27.7777777407
3	18604	4.41	27.777777741882
3	19160	4.51	27.777777743495
3	19716	4.61	27.777777745434
3	20272	4.71	27.777777747604
3	20828	4.81	27.777777749925
3	21384	4.91	27.777777752329
3	21949	5.01	27.776209127303
3	22505	5.11	27.680725600518
3	23061	5.21	27.458674491554
3	23617	5.31	27.132793881731
3	24173	5.41	26.7217369174
3	24729	5.51	26.240805675459
3	25285	5.61	25.702553188676
3	25841	5.71	25.117277316141
3	26397	5.81	24.493425889048
3	26953	5.91	23.837929071358
3	27517	6.01	23.156472011293
3	28073	6.11	22.453718510531
3	28629	6.21	21.733494510849
3	29185	6.31	20.998938617081
3	29741	6.41	20.252625578365
3	30297	6.51	19.496667585781
3	30853	6.61	18.732797371687
3	31409	6.71	17.96243638013
3	31965	6.81	17.186750690316
3	32521	6.91	16.40669689334
3	33085	7.01	15.623059727079
3	33641	7.11	14.836482949919
3	34197	7.21	14.047494667954
3	34753	7.31	13.256528112123
3	35309	7.41	12.463938682689
3	35865	7.51	11.670017931653
3	36421	7.61	10.875005033206
3	36977	7.71	10.079096193486
3	37533	7.81	9.2824523698668
3	38089	7.91	8.4852056034545
3	38653	8.01	7.6874642139473
3	39209	8.11	6.8893170612252
3	39765	8.21	6.0908370413395
3	40321	8.31	5.2920839544422
3	40877	8.41	4.493106857486
3	41433	8.51	3.693945994259
3	41989	8.61	2.894634378684
3	42545	8.71	2.0951990936768
3	43101	8.81	1.295662356661
3	43657	8.91	0.49604239366253
3	44221	9.01	0
3	44777	9.11	0
3	45333	9.21	0
3	45889	9.31	0
3	46445	9.41	0
3	47001	9.51	0
3	47557	9.61	0
3	48113	9.71	0
3	48669	9.81	0
3	49225	9.91	0
3	49789	10.01	0
3	50345	10.11	0
3	50901	10.21	0
3	51457	10.31	0
3	52013	10.41	0
3	52569	10.51	0
3	53125	10.61	0
3	53681	10.71	0
3	54237	10.81	0
3	54793	10.91	0
3	55357	11.01	0
3	55913	11.11	0
3	56469	11.21	0
3	57025	11.31	0
3	57581	11.41	0
3	58137	11.51	0
3	58693	11.61	0
3	59249	11.71	0
3	59805	11.81	0
3	60361	11.91	0
3	60925	12.01	0
3	61481	12.11	0
3	62037	12.21	0
3	62593	12.31	0
3	63149	12.41	0
3	63705	12.51	0
3	64261	12.61	0
3	64817	12.71	0
3	65373	12.81	0
3	65929	12.91	0
3	66493	13.01	0
3	67049	13.11	0
3	67605	13.21	0
3	68161	13.31	0
3	68717	13.41	0
3	69273	13.51	0
3	69829	13.61	0
3	70385	13.71	0
3	70941	13.81	0
3	71497	13.91	0
3	72061	14.01	0
3	72617	14.11	0
3	73173	14.21	0
3	73729	14.31	0
3	74285	14.41	0
3	74841	14.51	0
3	75397	14.61	0
3	75953	14.71	0
3	76509	14.81	0
3	77065	14.91	0
3	77629	15.01	0
3	78185	15.11	0
3	78741	15.21	0
3	79297	15.31	0
3	79853	15.41	0
3	80409	15.51	0
3	80965	15.61	0
3	81521	15.71	0
3	82077	15.81	0
3	82633	15.91	0
3	83197	16.01	0
3	83753	16.11	0
3	84309	16.21	0
3	84865	16.31	0
3	85421	16.41	0
3	85977	16.51	0
3	86533	16.61	0
3	87089	16.71	0
3	87645	16.81	0
3	88201	16.91	0
3	88765	17.01	0
3	89321	17.11	0
3	89877	17.21	0
3	90433	17.31	0
3	90989	17.41	0
3	91545	17.51	0
3	92101	17.61	0
3	92657	17.71	0
3	93213	17.81	0
3	93769	17.91	0
3	94333	18.01	0
3	94889	18.11	0
3	95445	18.21	0
3	96001	18.31	0
3	96557	18.41	0
3	97113	18.51	0
3	97669	18.61	0
3	98225	18.71	0
3	98781	18.81	0
3	99337	18.91	0
3	99901	19.01	0
3	100457	19.11	0
3	101013	19.21	0
3	101569	19.31	0
3	102125	19.41	0
3	102681	19.51	0
3	103237	19.61	0
3	103793	19.71	0
3	104349	19.81	0
3	104905	19.91	0
3	105469	20.01	0
3	106025	20.11	0
3	106581	20.21	0
3	107137	20.31	0
3	107693	20.41	0
3	108249	20.51	0
3	108805	20.61	0
3	109361	20.71	0
3	109917	20.81	0
3	110473	20.91	0
3	111037	21.01	0
3	111593	21.11	0
3	112149	21.21	0
3	112705	21.31	0
3	113261	21.41	0
3	113817	21.51	0
3	114373	21.61	0
3	114929	21.71	0
3	115485	21.81	0
3	116041	21.91	0
3	116605	22.01	0
3	117161	22.11	0
3	117717	22.21	0
3	118273	22.31	0
3	118829	22.41	0
3	119385	22.51	0
3	119941	22.61	0
3	120497	22.71	0
3	121053	22.81	0
3	121609	22.91	0
3	122173	23.01	0
3	122729	23.11	0
3	123285	23.21	0
3	123841	23.31	0
3	124397	23.41	0
3	124953	23.51	0
3	125509	23.61	0
3	126065	23.71	0
3	126621	23.81	0
3	127177	23.91	0
3	127741	24.01	0
3	128297	24.11	0
3	128853	24.21	0
3	129409	24.31	0
3	129965	24.41	0
3	130521	24.51	0
3	131077	24.61	0
3	131633	24.71	0
3	132189	24.81	0
3	132745	24.91	0
3	133309	25.01	0
3	133865	25.11	0
3	134421	25.21	0
3	134977	25.31	0
3	135533	25.41	0
3	136089	25.51	0
3	136645	25.61	0
3	137201	25.71	0
3	137757	25.81	0
3	138313	25.91	0
3	138877	26.01	0
3	139433	26.11	0
3	139989	26.21	0
3	140545	26.31	0
3	141101	26.41	0
3	141657	26.51	0
3	142213	26.61	0
3	142769	26.71	0
3	143325	26.81	0
3	143881	26.91	0
3	144445	27.01	0
3	145001	27.11	0
3	145557	27.21	0
3	146113	27.31	0
3	146669	27.41	0
3	147225	27.51	0
3	147781	27.61	0
3	148337	27.71	0
3	148893	27.81	0
3	149449	27.91	0
3	150013	28.01	0
3	150569	28.11	0
3	151125	28.21	0
3	151681	28.31	0
3	152237	28.41	0
3	152793	28.51	0
3	153349	28.61	0
3	153905	28.71	0
3	154461	28.81	0
3	155017	28.91	0
3	155581	29.01	0
3	156137	29.11	0
3	156693	29.21	0
3	157249	29.31	0
3	157805	29.41	0
3	158361	29.51	0
3	158917	29.61	0
3	159473	29.71	0
3	160029	29.81	0
3	160585	29.91	0
3	161149	30.01	0
3	161705	30.11	0
3	162261	30.21	0
3	162817	30.31	0
3	163373	30.41	0
3	163929	30.51	0
3	164485	30.61	0
3	165041	30.71	0
3	165597	30.81	0
3	166153	30.91	0
3	166717	31.01	0
3	167273	31.11	0
3	167829	31.21	0
3	168385	31.31	0
3	168941	31.41	0
3	169497	31.51	0
3	170053	31.61	0
3	170609	31.71	0
3	171165	31.81	0
3	171721	31.91	0
3	172285	32.01	0
3	172841	32.11	0
3	173397	32.21	0
3	173953	32.31	0
3	174509	32.41	0
3	175065	32.51	0
3	175621	32.61	0
3	176177	32.71	0
3	176733	32.81	0
3	177289	32.91	0
3	177853	33.01	0
3	178409	33.11	0
3	178965	33.21	0
3	179521	33.31	0
3	180077	33.41	0
3	180633	33.51	0
3	181189	33.61	0
3	181745	33.71	0
3	182301	33.81	0
3	182857	33.91	0
3	183421	34.01	0
3	183977	34.11	0
3	184533	34.21	0
3	185089	34.31	0
3	185645	34.41	0
3	186201	34.51	0
3	186757	34.61	0
3	187313	34.71	0
3	187869	34.81	0
3	188425	34.91	0
3	188989	35.01	0
3	189545	35.11	0
3	190101	35.21	0
3	190657	35.31	0
3	191213	35.41	0
3	191769	35.51	0
3	192325	35.61	0
3	192881	35.71	0
3	193437	35.81	0
3	193993	35.91	0
3	194557	36.01	0
3	195113	36.11	0
3	195669	36.21	0
3	196225	36.31	0
3	196781	36.41	0
3	197337	36.51	0
3	197893	36.61	0
3	198449	36.71	0
3	199005	36.81	0
3	199561	36.91	0
3	200125	37.01	0
3	200681	37.11	0
3	201237	37.21	0
3	201793	37.31	0
3	202349	37.41	0
3	202905	37.51	0
3	203461	37.61	0
3	204017	37.71	0
3	204573	37.81	0
3	205129	37.91	0
3	205693	38.01	0
3	206249	38.11	0
3	206805	38.21	0
3	207361	38.31	0
3	207917	38.41	0
3	208473	38.51	0
3	209029	38.61	0
3	209585	38.71	0
3	210141	38.81	0
3	210697	38.91	0
3	211261	39.01	0
3	211817	39.11	0
3	212373	39.21	0
3	212929	39.31	0
3	213485	39.41	0
3	214041	39.51	0
3	214597	39.61	0
3	215153	39.71	0
3	215709	39.81	0
3	216265	39.91	0
3	216829	40.01	0
3	217385	40.11	0
3	217941	40.21	0
3	218497	40.31	0
3	219053	40.41	0
3	219609	40.51	0
3	220165	40.61	0
3	220721	40.71	0
3	221277	40.81	0
3	221833	40.91	0
3	222397	41.01	0
3	222953	41.11	0
3	223509	41.21	0
3	224065	41.31	0
3	224621	41.41	0
3	225177	41.51	0
3	225733	41.61	0
3	226289	41.71	0
3	226845	41.81	0
3	227401	41.91	0
3	227965	42.01	0
3	228521	42.11	0
3	229077	42.21	0
3	229633	42.31	0
3	230189	42.41	0
3	230745	42.51	0
3	231301	42.61	0
3	231857	42.71	0
3	232413	42.81	0
3	232969	42.91	0
3	233533	43.01	0
3	234089	43.11	0
3	234645	43.21	0
3	235201	43.31	0
3	235757	43.41	0
3	236313	43.51	0
3	236869	43.61	0
3	237425	43.71	0
3	237981	43.81	0
3	238537	43.91	0
3	239101	44.01	0
3	239657	44.11	0
3	240213	44.21	0
3	240769	44.31	0
3	241325	44.41	0
3	241881	44.51	0
3	242437	44.61	0
3	242993	44.71	0
3	243549	44.81	0
3	244105	44.91	0
3	244669	45.01	0
3	245225	45.11	0
3	245781	45.21	0
3	246337	45.31	0
3	246893	45.41	0
3	247449	45.51	0
3	248005	45.61	0
3	248561	45.71	0
3	249117	45.81	0
3	249673	45.91	0
3	250237	46.01	0
3	250793	46.11	0
3	251349	46.21	0
3	251905	46.31	0
3	252461	46.41	0
3	253017	46.51	0
3	253573	46.61	0
3	254129	46.71	0
3	254685	46.81	0
3	255241	46.91	0
3	255805	47.01	0
3	256361	47.11	0
3	256917	47.21	0
3	257473	47.31	0
3	258029	47.41	0
3	258585	47.51	0
3	259141	47.61	0
3	259697	47.71	0
3	260253	47.81	0
3	260809	47.91	0
3	261373	48.01	0
3	261929	48.11	0
3	262485	48.21	0
3	263041	48.31	0
3	263597	48.41	0
3	264153	48.51	0
3	264709	48.61	0
3	265265	48.71	0
3	265821	48.81	0
3	266377	48.91	0
3	266941	49.01	0
3	267497	49.11	0
3	268053	49.21	0
3	268609	49.31	0
3	269165	49.41	0
3	269721	49.51	0
3	270277	49.61	0
3	270833	49.71	0
3	271389	49.81	0
3	271945	49.91	0
3	272509	50.01	0
3	273065	50.11	0
3	273621	50.21	0
3	274177	50.31	0
3	274733	50.41	0
3	275289	50.51	0
3	275845	50.61	0
3	276401	50.71	0
3	276957	50.81	0
3	277513	50.91	0
3	278077	51.01	0
3	278633	51.11	0
3	279189	51.21	0
3	279745	51.31	0
3	280301	51.41	0
3	280857	51.51	0
3	281413	51.61	0
3	281969	51.71	0
3	282525	51.81	0
3	283081	51.91	0
3	283645	52.01	0
3	284201	52.11	0
3	284757	52.21	0
3	285313	52.31	0
3	285869	52.41	0
3	286425	52.51	0
3	286981	52.61	0
3	287537	52.71	0
3	288093	52.81	0
3	288649	52.91	0
3	289213	53.01	0
3	289769	53.11	0
3	290325	53.21	0
3	290881	53.31	0
3	291437	53.41	0
3	291993	53.51	0
3	292549	53.61	0
3	293105	53.71	0
3	293661	53.81	0
3	294217	53.91	0
3	294781	54.01	0
3	295337	54.11	0
3	295893	54.21	0
3	296449	54.31	0
3	297005	54.41	0
3	297561	54.51	0
3	298117	54.61	0
3	298673	54.71	0
3	299229	54.81	0
3	299785	54.91	0
3	300349	55.01	0
3	300905	55.11	0
3	301461	55.21	0
3	302017	55.31	0
3	302573	55.41	0
3	303129	55.51	0
3	303685	55.61	0
3	304241	55.71	0
3	304797	55.81	0
3	305353	55.91	0
3	305917	56.01	0
3	306473	56.11	0
3	307029	56.21	0
3	307585	56.31	0
3	308141	56.41	0
3	308697	56.51	0
3	309253	56.61	0
3	309809	56.71	0
3	310365	56.81	0
3	310921	56.91	0
3	311485	57.01	0
3	312041	57.11	0
3	312597	57.21	0
3	313153	57.31	0
3	313709	57.41	0
3	314265	57.51	0
3	314821	57.61	0
3	315377	57.71	0
3	315933	57.81	0
3	316489	57.91	0
3	317053	58.01	0
3	317609	58.11	0
3	318165	58.21	0
3	318721	58.31	0
3	319277	58.41	0
3	319833	58.51	0
3	320389	58.61	0
3	320945	58.71	0
3	321501	58.81	0
3	322057	58.91	0
3	322621	59.01	0
3	323177	59.11	0
3	323733	59.21	0
3	324289	59.31	0
3	324845	59.41	0
3	325401	59.51	0
3	325957	59.61	0
3	326513	59.71	0
3	327069	59.81	0
3	327625	59.91	0
1	232	1.11	0
1	788	1.21	0
1	1344	1.31	0
1	1900	1.41	0
1	2456	1.51	0
1	3012	1.61	0
1	3568	1.71	0
1	4124	1.81	0
1	4680	1.91	0
1	5244	2.01	0
1	5800	2.11	0
1	6356	2.21	0
1	6912	2.31	0
1	7468	2.41	0
1	8024	2.51	0
1	8580	2.61	0
1	9136	2.71	0
1	9692	2.81	0
1	10248	2.91	0
1	10812	3.01	0
1	11368	3.11	0
1	11924	3.21	0
1	12480	3.31	0
1	13036	3.41	0
1	13592	3.51	0
1	14148	3.61	0
1	14704	3.71	0
1	15260	3.81	0
1	15816	3.91	0
1	16380	4.01	0
1	16936	4.11	0
1	17492	4.21	0
1	18048	4.31	0
1	18604	4.41	0
1	19160	4.51	0
1	19716	4.61	0
1	20272	4.71	0
1	20828	4.81	0
1	21384	4.91	0
1	21949	5.01	0
1	22505	5.11	0
1	23061	5.21	0
1	23617	5.31	0
1	24173	5.41	0
1	24729	5.51	0
1	25285	5.61	0
1	25841	5.71	0
1	26397	5.81	0
1	26953	5.91	0
1	27517	6.01	0
1	28073	6.11	0
1	28629	6.21	0
1	29185	6.31	0
1	29741	6.41	0
1	30297	6.51	0
1	30853	6.61	0
1	31409	6.71	0
1	31965	6.81	0
1	32521	6.91	0
1	33085	7.01	0
1	33641	7.11	0
1	34197	7.21	0
1	34753	7.31	0
1	35309	7.41	0
1	35865	7.51	0
1	36421	7.61	0
1	36977	7.71	0
1	37533	7.81	0
1	38089	7.91	0
1	38653	8.01	0
1	39209	8.11	0
1	39765	8.21	0
1	40321	8.31	0
1	40877	8.41	0
1	41433	8.51	0
1	41989	8.61	0
1	42545	8.71	0
1	43101	8.81	0
1	43657	8.91	0
1	44221	9.01	0
1	44777	9.11	0
1	45333	9.21	0
1	45889	9.31	0
1	46445	9.41	0
1	47001	9.51	0
1	47557	9.61	0
1	48113	9.71	0
1	48669	9.81	0
1	49225	9.91	0
1	49789	10.01	0
1	50345	10.11	0
1	50901	10.21	0
1	51457	10.31	0
1	52013	10.41	0
1	52569	10.51	0
1	53125	10.61	0
1	53681	10.71	0
1	54237	10.81	0
1	54793	10.91	0
1	55357	11.01	0
1	55913	11.11	0
1	56469	11.21	0
1	57025	11.31	0
1	57581	11.41	0
1	58137	11.51	0
1	58693	11.61	0
1	59249	11.71	0
1	59805	11.81	0
1	60361	11.91	0
1	60925	12.01	0
1	61481	12.11	0
1	62037	12.21	0
1	62593	12.31	0
1	63149	12.41	0
1	63705	12.51	0
1	64261	12.61	0
1	64817	12.71	0
1	65373	12.81	0
1	65929	12.91	0
1	66493	13.01	0
1	67049	13.11	0
1	67605	13.21	0
1	68161	13.31	0
1	68717	13.41	0
1	69273	13.51	0
1	69829	13.61	0
1	70385	13.71	0
1	70941	13.81	0
1	71497	13.91	0
1	72061	14.01	0
1	72617	14.11	0
1	73173	14.21	0
1	73729	14.31	0
1	74285	14.41	0
1	74841	14.51	0
1	75397	14.61	0
1	75953	14.71	0
1	76509	14.81	0
1	77065	14.91	0
1	77629	15.01	0
1	78185	15.11	0
1	78741	15.21	0
1	79297	15.31	0
1	79853	15.41	0
1	80409	15.51	0
1	80965	15.61	0
1	81521	15.71	0
1	82077	15.81	0
1	82633	15.91	0
1	83197	16.01	0
1	83753	16.11	0
1	84309	16.21	0
1	84865	16.31	0
1	85421	16.41	0
1	85977	16.51	0
1	86533	16.61	0
1	87089	16.71	0
1	87645	16.81	0
1	88201	16.91	0
1	88765	17.01	0
1	89321	17.11	0
1	89877	17.21	0
1	90433	17.31	0
1	90989	17.41	0
1	91545	17.51	0
1	92101	17.61	0
1	92657	17.71	0
1	93213	17.81	0
1	93769	17.91	0
1	94333	18.01	0
1	94889	18.11	0
1	95445	18.21	0
1	96001	18.31	0
1	96557	18.41	0
1	97113	18.51	0
1	97669	18.61	0
1	98225	18.71	0
1	98781	18.81	0
1	99337	18.91	0
1	99901	19.01	0
1	100457	19.11	0
1	101013	19.21	0
1	101569	19.31	0
1	102125	19.41	0
1	102681	19.51	0
1	103237	19.61	0
1	103793	19.71	0
1	104349	19.81	0
1	104905	19.91	0
1	105469	20.01	0
1	106025	20.11	0
1	106581	20.21	0
1	107137	20.31	0
1	107693	20.41	0
1	108249	20.51	0
1	108805	20.61	0
1	109361	20.71	0
1	109917	20.81	0
1	110473	20.91	0
1	111037	21.01	0
1	111593	21.11	0
1	112149	21.21	0
1	112705	21.31	0
1	113261	21.41	0
1	113817	21.51	0
1	114373	21.61	0
1	114929	21.71	0
1	115485	21.81	0
1	116041	21.91	0
1	116605	22.01	0
1	117161	22.11	0
1	117717	22.21	0
1	118273	22.31	0
1	118829	22.41	0
1	119385	22.51	0
1	119941	22.61	0
1	120497	22.71	0
1	121053	22.81	0
1	121609	22.91	0
1	122173	23.01	0
1	122729	23.11	0
1	123285	23.21	0
1	123841	23.31	0
1	124397	23.41	0
1	124953	23.51	0
1	125509	23.61	0
1	126065	23.71	0
1	126621	23.81	0
1	127177	23.91	0
1	127741	24.01	0
1	128297	24.11	0
1	128853	24.21	0
1	129409	24.31	0
1	129965	24.41	0
1	130521	24.51	0
1	131077	24.61	0
1	131633	24.71	0
1	132189	24.81	0
1	132745	24.91	0
1	133309	25.01	0
1	133865	25.11	0
1	134421	25.21	0
1	134977	25.31	0
1	135533	25.41	0
1	136089	25.51	0
1	136645	25.61	0
1	137201	25.71	0
1	137757	25.81	0
1	138313	25.91	0
1	138877	26.01	0
1	139433	26.11	0
1	139989	26.21	0
1	140545	26.31	0
1	141101	26.41	0
1	141657	26.51	0
1	142213	26.61	0
1	142769	26.71	0
1	143325	26.81	0
1	143881	26.91	0
1	144445	27.01	0
1	145001	27.11	0
1	145557	27.21	0
1	146113	27.31	0
1	146669	27.41	0
1	147225	27.51	0
1	147781	27.61	0
1	148337	27.71	0
1	148893	27.81	0
1	149449	27.91	0
1	150013	28.01	0
1	150569	28.11	0
1	151125	28.21	0
1	151681	28.31	0
1	152237	28.41	0
1	152793	28.51	0
1	153349	28.61	0
1	153905	28.71	0
1	154461	28.81	0
1	155017	28.91	0
1	155581	29.01	0
1	156137	29.11	0
1	156693	29.21	0
1	157249	29.31	0
1	157805	29.41	0
1	158361	29.51	0
1	158917	29.61	0
1	159473	29.71	0
1	160029	29.81	0
1	160585	29.91	0
1	161149	30.01	0
1	161705	30.11	0
1	162261	30.21	0
1	162817	30.31	0
1	163373	30.41	0
1	163929	30.51	0
1	164485	30.61	0
1	165041	30.71	0
1	165597	30.81	0
1	166153	30.91	0
1	166717	31.01	0
1	167273	31.11	0
1	167829	31.21	0
1	168385	31.31	0
1	168941	31.41	0
1	169497	31.51	0
1	170053	31.61	0
1	170609	31.71	0
1	171165	31.81	0
1	171721	31.91	0
1	172285	32.01	0
1	172841	32.11	0
1	173397	32.21	0
1	173953	32.31	0
1	174509	32.41	0
1	175065	32.51	0
1	175621	32.61	0
1	176177	32.71	0
1	176733	32.81	0
1	177289	32.91	0
1	177853	33.01	0
1	178409	33.11	0
1	178965	33.21	0
1	179521	33.31	0
1	180077	33.41	0
1	180633	33.51	0
1	181189	33.61	0
1	181745	33.71	0
1	182301	33.81	0
1	182857	33.91	0
1	183421	34.01	0
1	183977	34.11	0
1	184533	34.21	0
1	185089	34.31	0
1	185645	34.41	0
1	186201	34.51	0
1	186757	34.61	0
1	187313	34.71	0
1	187869	34.81	0
1	188425	34.91	0
1	188989	35.01	0
1	189545	35.11	0
1	190101	35.21	0
1	190657	35.31	0
1	191213	35.41	0
1	191769	35.51	0
1	192325	35.61	0
1	192881	35.71	0
1	193437	35.81	0
1	193993	35.91	0
1	194557	36.01	0
1	195113	36.11	0
1	195669	36.21	0
1	196225	36.31	0
1	196781	36.41	0
1	197337	36.51	0
1	197893	36.61	0
1	198449	36.71	0
1	199005	36.81	0
1	199561	36.91	0
1	200125	37.01	0
1	200681	37.11	0
1	201237	37.21	0
1	201793	37.31	0
1	202349	37.41	0
1	202905	37.51	0
1	203461	37.61	0
1	204017	37.71	0
1	204573	37.81	0
1	205129	37.91	0
1	205693	38.01	0
1	206249	38.11	0
1	206805	38.21	0
1	207361	38.31	0
1	207917	38.41	0
1	208473	38.51	0
1	209029	38.61	0
1	209585	38.71	0
1	210141	38.81	0
1	210697	38.91	0
1	211261	39.01	0
1	211817	39.11	0
1	212373	39.21	0
1	212929	39.31	0
1	213485	39.41	0
1	214041	39.51	0
1	214597	39.61	0
1	215153	39.71	0
1	215709	39.81	0
1	216265	39.91	0
1	216829	40.01	0
1	217385	40.11	0
1	217941	40.21	0
1	218497	40.31	0
1	219053	40.41	0
[...]
166	326138	59.654438033237	7
166	326694	59.754436835659	7
166	327250	59.854435638081	7
166	327806	59.954434440503	7
165	1068	1.254911410977	7
165	1624	1.354884251559	7
165	2180	1.454870092141	7
165	2736	1.554881932723	7
165	3292	1.654867773305	7
165	3848	1.754853613887	7
165	4404	1.854917454469	7
165	4960	1.954890295051	7
165	5524	2.054928135633	7
165	6080	2.154835976215	7
165	6636	2.254899816797	7
165	7192	2.354924657379	7
165	7748	2.454858497961	7
165	8304	2.554831338543	7
165	8860	2.654895179125	7
165	9416	2.754881019707	7
165	9972	2.854918860289	7
165	10528	2.954865700871	7
165	11092	3.054864541453	7
165	11648	3.154902382035	7
165	12204	3.254862222617	7
165	12760	3.354861063199	7
165	13316	3.454924903781	7
165	13872	3.554871744363	7
165	14428	3.654844584945	7
165	14984	3.754830425527	7
165	15540	3.854829266109	7
165	16096	3.954880106691	7
165	16660	4.054852947273	7
165	17216	4.154864787855	7
165	17772	4.254928628437	7
165	18328	4.354914469019	7
165	18884	4.454848309601	7
165	19440	4.554886150183	7
165	19996	4.654858990765	7
165	20552	4.754883831347	7
165	21108	4.854921671929	7
165	21664	4.954842512511	7
165	22229	5.054828353088	7
165	22785	5.154892193599	7
165	23341	5.254878033943	7
165	23897	5.354863874014	7
165	24453	5.454888713715	7
165	25009	5.554900552954	7
165	25565	5.654860391655	7
165	26121	5.754872229755	7
165	26677	5.854871067198	7
165	27233	5.954843903938	7
165	27797	6.05484273993	7
165	28353	6.154893575136	7
165	28909	6.254918409525	7
165	29465	6.354878243065	7
165	30021	6.454838075726	7
165	30577	6.554914907484	7
165	31133	6.654913738311	7
165	31689	6.754847568184	7
165	32245	6.854898397078	7
165	32801	6.954884224975	7
165	33365	7.054844051849	7
165	33921	7.154894877681	7
165	34477	7.254893702451	7
165	35033	7.354853526139	7
165	35589	7.454891348722	7
165	36145	7.554929170183	7
165	36701	7.654901990505	7
165	37257	7.754900809667	7
165	37813	7.854925627651	7
165	38369	7.95487244444	7
165	38933	8.054832260018	7
165	39489	8.154857074365	7
165	40045	8.254855887465	7
165	40601	8.354867699303	7
165	41157	8.454879509861	7
165	41713	8.554904319123	7
165	42269	8.654838127075	7
165	42825	8.754862933699	7
165	43381	8.854835738984	7
165	43937	8.954899542915	7
165	44501	9.054924345713	7
165	45057	9.154910148155	7
165	45613	9.254830950577	7
165	46169	9.354829752999	7
165	46725	9.454854555421	7
165	47281	9.554879357843	7
165	47837	9.654852160265	7
165	48393	9.754876962687	7
165	48949	9.854849765109	7
165	49505	9.954874567531	7
165	50069	10.054925369953	7
165	50625	10.154833172375	7
165	51181	10.254922974797	7
165	51737	10.354882777219	7
165	52293	10.454855579641	7
165	52849	10.554906382063	7
165	53405	10.654866184485	7
165	53961	10.754929986907	7
165	54517	10.854915789329	7
165	55073	10.954836591751	7
165	55637	11.054874394173	7
165	56193	11.154847196595	7
165	56749	11.254858999017	7
165	57305	11.354870801439	7
165	57861	11.454856603861	7
165	58417	11.554829406283	7
165	58973	11.654919208705	7
165	59529	11.754918011127	7
165	60085	11.854929813549	7
165	60641	11.954863615971	7
165	61205	12.054836418393	7
165	61761	12.154926220815	7
165	62317	12.254847023237	7
165	62873	12.354858825659	7
165	63429	12.454870628081	7
165	63985	12.554869430503	7
165	64541	12.654868232925	7
165	65097	12.754828035347	7
165	65653	12.854826837769	7
165	66209	12.954864640191	7
165	66773	13.054915442613	7
165	67329	13.154836245035	7
165	67885	13.254848047457	7
165	68441	13.354833849879	7
165	68997	13.454832652301	7
165	69553	13.554896454723	7
165	70109	13.654882257145	7
165	70665	13.754842059567	7
165	71221	13.854905861989	7
165	71777	13.954852664411	7
165	72341	14.054890466833	7
165	72897	14.154850269255	7
165	73453	14.254901071677	7
165	74009	14.354925874099	7
165	74565	14.454872676521	7
165	75121	14.554923478943	7
165	75677	14.654922281365	7
165	76233	14.754843083787	7
165	76789	14.854893886209	7
165	77345	14.954827688631	7
165	77909	15.054839491053	7
165	78465	15.154877293475	7
165	79021	15.254863095897	7
165	79577	15.354861898319	7
165	80133	15.454847700741	7
165	80689	15.554924503163	7
165	81245	15.654832305585	7
165	81801	15.754857108007	7
165	82357	15.854894910429	7
165	82913	15.954854712851	7
165	83477	16.054879515273	7
165	84033	16.154865317695	7
165	84589	16.254929120117	7
165	85145	16.354888922539	7
165	85701	16.454926724961	7
165	86257	16.554899527383	7
165	86813	16.654924329805	7
165	87369	16.754910132227	7
165	87925	16.854856934649	7
165	88481	16.954894737071	7
165	89045	17.054841539493	7
165	89601	17.154892341915	7
165	90157	17.254878144337	7
165	90713	17.354889946759	7
165	91269	17.454914749181	7
165	91825	17.554861551603	7
165	92381	17.654873354025	7
165	92937	17.754859156447	7
165	93493	17.854896958869	7
165	94049	17.954830761291	7
165	94613	18.054829563713	7
165	95169	18.154880366135	7
165	95725	18.254840168557	7
165	96281	18.354929970979	7
165	96837	18.454902773401	7
165	97393	18.554862575823	7
165	97949	18.654874378245	7
165	98505	18.754847180667	7
165	99061	18.854910983089	7
165	99617	18.954844785511	7
165	100181	19.054895587933	7
165	100737	19.154842390355	7
165	101293	19.254841192777	7
165	101849	19.354826995199	7
165	102405	19.454877797621	7
165	102961	19.554837600043	7
165	103517	19.654901402465	7
165	104073	19.754861204887	7
165	104629	19.854873007309	7
165	105185	19.954910809731	7
165	105749	20.054857612153	7
165	106305	20.154882414575	7
165	106861	20.254855216997	7
165	107417	20.354828019419	7
165	107973	20.454865821841	7
165	108529	20.554851624263	7
165	109085	20.654889426685	7
165	109641	20.754836229107	7
165	110197	20.854874031529	7
165	110753	20.954859833951	7
165	111317	21.054858636373	7
165	111873	21.154896438795	7
165	112429	21.254869241217	7
165	112985	21.354855043639	7
165	113541	21.454840846061	7
165	114097	21.554878648483	7
165	114653	21.654916450905	7
165	115209	21.754889253327	7
165	115765	21.854849055749	7
165	116321	21.954860858171	7
165	116885	22.054898660593	7
165	117441	22.154832463015	7
165	117997	22.254857265437	7
165	118553	22.354856067859	7
165	119109	22.454841870281	7
165	119665	22.554840672703	7
165	120221	22.654917475125	7
165	120777	22.754851277547	7
165	121333	22.854863079969	7
165	121889	22.954887882391	7
165	122453	23.054925684813	7
165	123009	23.154898487235	7
165	123565	23.254897289657	7
165	124121	23.354831092079	7
165	124677	23.454868894501	7
165	125233	23.554880696923	7
165	125789	23.654840499345	7
165	126345	23.754878301767	7
165	126901	23.854851104189	7
165	127457	23.954862906611	7
165	128021	24.054848709033	7
165	128577	24.154925511455	7
165	129133	24.254846313877	7
165	129689	24.354845116299	7
165	130245	24.454830918721	7
165	130801	24.554829721143	7
165	131357	24.654854523565	7
165	131913	24.754918325987	7
165	132469	24.854904128409	7
165	133025	24.954850930831	7
165	133589	25.054849733253	7
165	134145	25.154900535675	7
165	134701	25.254886338097	7
165	135257	25.354885140519	7
165	135813	25.454909942941	7
165	136369	25.554869745363	7
165	136925	25.654881547785	7
165	137481	25.754854350207	7
165	138037	25.854918152629	7
165	138593	25.954877955051	7
165	139157	26.054928757473	7
165	139713	26.154901559895	7
165	140269	26.254926362317	7
165	140825	26.354860164739	7
165	141381	26.454845967161	7
165	141937	26.554831769583	7
165	142493	26.654843572005	7
165	143049	26.754894374427	7
165	143605	26.854867176849	7
165	144161	26.954878979271	7
165	144725	27.054851781693	7
165	145281	27.154876584115	7
165	145837	27.254888386537	7
165	146393	27.354874188959	7
165	146949	27.454833991381	7
165	147505	27.554923793803	7
165	148061	27.654857596225	7
165	148617	27.754908398647	7
165	149173	27.854907201069	7
165	149729	27.954919003491	7
165	150293	28.054852805913	7
165	150849	28.154851608335	7
165	151405	28.254928410757	7
165	151961	28.354888213179	7
165	152517	28.454874015601	7
165	153073	28.554846818023	7
165	153629	28.654910620445	7
165	154185	28.754909422867	7
165	154741	28.854908225289	7
165	155297	28.954907027711	7
165	155861	29.054892830133	7
165	156417	29.154826632555	7
165	156973	29.254929434977	7
165	157529	29.354876237399	7
165	158085	29.454901039821	7
165	158641	29.554886842243	7
165	159197	29.654885644665	7
165	159753	29.754897447087	7
165	160309	29.854883249509	7
165	160865	29.954843051931	7
165	161429	30.054880854353	7
165	161985	30.154905656775	7
165	162541	30.254826459197	7
165	163097	30.354838261619	7
165	163653	30.454915064041	7
165	164209	30.554887866463	7
165	164765	30.654899668885	7
165	165321	30.754885471307	7
165	165877	30.854845273729	7
165	166433	30.954844076151	7
165	166997	31.054894878573	7
165	167553	31.154880680995	7
165	168109	31.254827483417	7
165	168665	31.354865285839	7
165	169221	31.454864088261	7
165	169777	31.554888890683	7
165	170333	31.654887693105	7
165	170889	31.754847495527	7
165	171445	31.854846297949	7
165	172001	31.954871100371	7
165	172565	32.054882902793	7
165	173121	32.154920705215	7
165	173677	32.254880507637	7
165	174233	32.354853310059	7
165	174789	32.454917112481	7
165	175345	32.554889914903	7
165	175901	32.654862717325	7
165	176457	32.754835519747	7
165	177013	32.854873322169	7
165	177569	32.954898124591	7
165	178133	33.054831927013	7
165	178689	33.154843729435	7
165	179245	33.254868531857	7
165	179801	33.354919334279	7
165	180357	33.454879136701	7
165	180913	33.554838939123	7
165	181469	33.654863741545	7
165	182025	33.754901543967	7
165	182581	33.854913346389	7
165	183137	33.954925148811	7
165	183701	34.054923951233	7
165	184257	34.154896753655	7
165	184813	34.254869556077	7
165	185369	34.354894358499	7
165	185925	34.454867160921	7
165	186481	34.554904963343	7
165	187037	34.654838765765	7
165	187593	34.754837568187	7
165	188149	34.854849370609	7
165	188705	34.954913173031	7
165	189269	35.054885975453	7
165	189825	35.154871777875	7
165	190381	35.254831580297	7
165	190937	35.354843382719	7
165	191493	35.454868185141	7
165	192049	35.554918987563	7
165	192605	35.654826789985	7
165	193161	35.754916592407	7
165	193717	35.854850394829	7
165	194273	35.954875197251	7
165	194837	36.054834999673	7
165	195393	36.154898802095	7
165	195949	36.254897604517	7
165	196505	36.354831406939	7
165	197061	36.454882209361	7
165	197617	36.554881011783	7
165	198173	36.654905814205	7
165	198729	36.754904616627	7
165	199285	36.854877419049	7
165	199841	36.954928221471	7
165	200405	37.054862023893	7
165	200961	37.154925826315	7
165	201517	37.254872628737	7
165	202073	37.354897431159	7
165	202629	37.454857233581	7
165	203185	37.554856036003	7
165	203741	37.654867838425	7
165	204297	37.754918640847	7
165	204853	37.854904443269	7
165	205409	37.954916245691	7
165	205973	38.054889048113	7
165	206529	38.154874850535	7
165	207085	38.254834652957	7
165	207641	38.354846455379	7
165	208197	38.454845257801	7
165	208753	38.554844060223	7
165	209309	38.654829862645	7
165	209865	38.754867665067	7
165	210421	38.854827467489	7
165	210977	38.954839269911	7
165	211541	39.054890072333	7
165	212097	39.154849874755	7
165	212653	39.254913677177	7
165	213209	39.354873479599	7
165	213765	39.454859282021	7
165	214321	39.554884084443	7
165	214877	39.654856886865	7
165	215433	39.754868689287	7
165	215989	39.854828491709	7
165	216545	39.954879294131	7
165	217109	40.054891096553	7
165	217665	40.154837898975	7
165	218221	40.254914701397	7
165	218777	40.354874503819	7
165	219333	40.454925306241	7
165	219889	40.554846108663	7
165	220445	40.654844911085	7
165	221001	40.754869713507	7
165	221557	40.854920515929	7
165	222113	40.954919318351	7
165	222677	41.054840120773	7
165	223233	41.154851923195	7
165	223789	41.254837725617	7
165	224345	41.354836528039	7
165	224901	41.454861330461	7
165	225457	41.554925132883	7
165	226013	41.654832935305	7
165	226569	41.754896737727	7
165	227125	41.854869540149	7
165	227681	41.954920342571	7
165	228245	42.054919144993	7
165	228801	42.154878947415	7
165	229357	42.254903749837	7
165	229913	42.354889552259	7
165	230469	42.454888354681	7
165	231025	42.554900157103	7
165	231581	42.654846959525	7
165	232137	42.754884761947	7
165	232693	42.854909564369	7
165	233249	42.954843366791	7
165	233813	43.054881169213	7
165	234369	43.154853971635	7
165	234925	43.254904774057	7
165	235481	43.354864576479	7
165	236037	43.454928378901	7
165	236593	43.554862181323	7
165	237149	43.654860983745	7
165	237705	43.754911786167	7
165	238261	43.854884588589	7
165	238817	43.954909391011	7
165	239381	44.054856193433	7
165	239937	44.154919995855	7
165	240493	44.254918798277	7
165	241049	44.354826600699	7
165	241605	44.454838403121	7
165	242161	44.554863205543	7
165	242717	44.654901007965	7
165	243273	44.754899810387	7
165	243829	44.854833612809	7
165	244385	44.954871415231	7
165	244949	45.054909217653	7
165	245505	45.154921020075	7
165	246061	45.254893822497	7
165	246617	45.354918624919	7
165	247173	45.454839427341	7
165	247729	45.554877229763	7
165	248285	45.654928032185	7
165	248841	45.754874834607	7
165	249397	45.854899637029	7
165	249953	45.954846439451	7
165	250517	46.054832241873	7
165	251073	46.154883044295	7
165	251629	46.254907846717	7
165	252185	46.354841649139	7
165	252741	46.454866451561	7
165	253297	46.554852253983	7
165	253853	46.654838056405	7
165	254409	46.754914858827	7
165	254965	46.854874661249	7
165	255521	46.954834463671	7
165	256085	47.054833266093	7
165	256641	47.154923068515	7
165	257197	47.254843870937	7
165	257753	47.354868673359	7
165	258309	47.454867475781	7
165	258865	47.554879278203	7
165	259421	47.654904080625	7
165	259977	47.754889883047	7
165	260533	47.854927685469	7
165	261089	47.954848487891	7
165	261653	48.054834290313	7
165	262209	48.154846092735	7
165	262765	48.254857895157	7
165	263321	48.354843697579	7
165	263877	48.454920500001	7
165	264433	48.554828302423	7
165	264989	48.654879104845	7
165	265545	48.754916907267	7
165	266101	48.854863709689	7
165	266657	48.954849512111	7
165	267221	49.054848314533	7
165	267777	49.154860116955	7
165	268333	49.254832919377	7
165	268889	49.354922721799	7
165	269445	49.454908524221	7
165	270001	49.554842326643	7
165	270557	49.654919129065	7
165	271113	49.754878931487	7
165	271669	49.854864733909	7
165	272225	49.954928536331	7
165	272789	50.054927338753	7
165	273345	50.154887141175	7
165	273901	50.254885943597	7
165	274457	50.354832746019	7
165	275013	50.454844548441	7
165	275569	50.554895350863	7
165	276125	50.654868153285	7
165	276681	50.754892955707	7
165	277237	50.854865758129	7
165	277793	50.954851560551	7
165	278357	51.054928362973	7
165	278913	51.154849165395	7
165	279469	51.254873967817	7
165	280025	51.354911770239	7
165	280581	51.454832572661	7
165	281137	51.554831375083	7
165	281693	51.654869177505	7
165	282249	51.754828979927	7
165	282805	51.854853782349	7
165	283361	51.954904584771	7
165	283925	52.054890387193	7
165	284481	52.154928189615	7
165	285037	52.254861992037	7
165	285593	52.354834794459	7
165	286149	52.454833596881	7
165	286705	52.554884399303	7
165	287261	52.654896201725	7
165	287817	52.754869004147	7
165	288373	52.854828806569	7
165	288929	52.954827608991	7
165	289493	53.054839411413	7
165	290049	53.154929213835	7
165	290605	53.254889016257	7
165	291161	53.354835818679	7
165	291717	53.454912621101	7
165	292273	53.554846423523	7
165	292829	53.654884225945	7
165	293385	53.754922028367	7
165	293941	53.854920830789	7
165	294497	53.954906633211	7
165	295061	54.054918435633	7
165	295617	54.154930238055	7
165	296173	54.254929040477	7
165	296729	54.354914842899	7
165	297285	54.454900645321	7
165	297841	54.554912447743	7
165	298397	54.654846250165	7
165	298953	54.754897052587	7
165	299509	54.854830855009	7
165	300065	54.954907657431	7
165	300629	55.054880459853	7
165	301185	55.154827262275	7
165	301741	55.254904064697	7
165	302297	55.354928867119	7
165	302853	55.454862669541	7
165	303409	55.554913471963	7
165	303965	55.654847274385	7
165	304521	55.754924076807	7
165	305077	55.854922879229	7
165	305633	55.954908681651	7
165	306197	56.054855484073	7
165	306753	56.154828286495	7
165	307309	56.254853088917	7
165	307865	56.354916891339	7
165	308421	56.454837693761	7
165	308977	56.554875496183	7
165	309533	56.654861298605	7
165	310089	56.754860101027	7
165	310645	56.854884903449	7
165	311201	56.954909705871	7
165	311765	57.054882508293	7
165	312321	57.154829310715	7
165	312877	57.254919113137	7
165	313433	57.354865915559	7
165	313989	57.454851717981	7
165	314545	57.554850520403	7
165	315101	57.654849322825	7
165	315657	57.754835125247	7
165	316213	57.854859927669	7
165	316769	57.954884730091	7
165	317333	58.054883532513	7
165	317889	58.154830334935	7
165	318445	58.254829137357	7
165	319001	58.354879939779	7
165	319557	58.454891742201	7
165	320113	58.554838544623	7
165	320669	58.654850347045	7
165	321225	58.754901149467	7
165	321781	58.854847951889	7
165	322337	58.954911754311	7
165	322901	59.054884556733	7
165	323457	59.154857359155	7
165	324013	59.254908161577	7
165	324569	59.354906963999	7
165	325125	59.454879766421	7
165	325681	59.554839568843	7
165	326237	59.654916371265	7
165	326793	59.754928173687	7
165	327349	59.854913976109	7
165	327905	59.954925778531	7
164	5109	2	0
164	10677	3	0
164	16245	4	0
164	21814	5	0
164	27382	6	0
164	32950	7	0
164	38518	8	0
164	44086	9	0
164	49654	10	0
164	55222	11	0
164	60790	12	0
164	66358	13	0
164	71926	14	0
164	77494	15	0
164	83062	16	0
164	88630	17	0
164	94198	18	0
164	99766	19	0
164	105334	20	0
164	110902	21	0
164	116470	22	0
164	122038	23	0
164	127606	24	0
164	133174	25	0
164	138742	26	0
164	144310	27	0
164	149878	28	0
164	155446	29	0
164	161014	30	0
164	166582	31	0
164	172150	32	0
164	177718	33	0
164	183286	34	0
164	188854	35	0
164	194422	36	0
164	199990	37	0
164	205558	38	0
164	211126	39	0
164	216694	40	0
164	222262	41	0
164	227830	42	0
164	233398	43	0
164	238966	44	0
164	244534	45	0
164	250102	46	0
164	255670	47	0
164	261238	48	0
164	266806	49	0
164	272374	50	0
164	277942	51	0
164	283510	52	0
164	289078	53	0
164	294646	54	0
164	300214	55	0
164	305782	56	0
164	311350	57	0
164	316918	58	0
164	322486	59	0
164	328054	60	0
163	5109	2	0.022969
163	10677	3	0.02625
163	16245	4	0.02625
163	21814	5	0.02625
163	27382	6	0.02625
163	32950	7	0.02625
163	38518	8	0.02625
163	44086	9	0.02625
163	49654	10	0.02625
163	55222	11	0.02625
163	60790	12	0.02625
163	66358	13	0.02625
163	71926	14	0.02625
163	77494	15	0.02625
163	83062	16	0.02625
163	88630	17	0.02625
163	94198	18	0.02625
163	99766	19	0.02625
163	105334	20	0.02625
163	110902	21	0.02625
163	116470	22	0.02625
163	122038	23	0.02625
163	127606	24	0.02625
163	133174	25	0.02625
163	138742	26	0.02625
163	144310	27	0.02625
163	149878	28	0.02625
163	155446	29	0.02625
163	161014	30	0.02625
163	166582	31	0.02625
163	172150	32	0.02625
163	177718	33	0.02625
163	183286	34	0.02625
163	188854	35	0.02625
163	194422	36	0.02625
163	199990	37	0.02625
163	205558	38	0.02625
163	211126	39	0.02625
163	216694	40	0.02625
163	222262	41	0.02625
163	227830	42	0.02625
163	233398	43	0.02625
163	238966	44	0.02625
163	244534	45	0.02625
163	250102	46	0.02625
163	255670	47	0.02625
163	261238	48	0.02625
163	266806	49	0.02625
163	272374	50	0.02625
163	277942	51	0.02625
163	283510	52	0.02625
163	289078	53	0.02625
163	294646	54	0.02625
163	300214	55	0.02625
163	305782	56	0.02625
163	311350	57	0.02625
163	316918	58	0.02625
163	322486	59	0.02625
163	328054	60	0.02625
162	5109	2	7
162	10677	3	7
162	16245	4	7
162	21814	5	7
162	27382	6	7
162	32950	7	7
162	38518	8	7
162	44086	9	7
162	49654	10	7
162	55222	11	7
162	60790	12	7
162	66358	13	7
162	71926	14	7
162	77494	15	7
162	83062	16	7
162	88630	17	7
162	94198	18	7
162	99766	19	7
162	105334	20	7
162	110902	21	7
162	116470	22	7
162	122038	23	7
162	127606	24	7
162	133174	25	7
162	138742	26	7
162	144310	27	7
162	149878	28	7
162	155446	29	7
162	161014	30	7
162	166582	31	7
162	172150	32	7
162	177718	33	7
162	183286	34	7
162	188854	35	7
162	194422	36	7
162	199990	37	7
162	205558	38	7
162	211126	39	7
162	216694	40	7
162	222262	41	7
162	227830	42	7
162	233398	43	7
162	238966	44	7
162	244534	45	7
162	250102	46	7
162	255670	47	7
162	261238	48	7
162	266806	49	7
162	272374	50	7
162	277942	51	7
162	283510	52	7
162	289078	53	7
162	294646	54	7
162	300214	55	7
162	305782	56	7
162	311350	57	7
162	316918	58	7
162	322486	59	7
162	328054	60	7
