version 2
run BrakingNoGui-0-20170411-19:04:32-32054
attr beaconInterval 0.1
attr configname BrakingNoGui
attr controller 0
attr datetime 20170411-19:04:32
attr experiment BrakingNoGui
attr headway 0.3
attr inifile omnetpp.ini
attr iterationvars "$nCars=8, $platoonSize=8, $nLanes=1, $ploegH=0.5, $controller=0, $sController=\"ACC\", $headway=0.3, $leaderHeadway=1.2, $leaderSpeed=100, $beaconInterval=0.1, $priority=2, $packetSize=200, $0=2, $1=0.3"
attr iterationvars2 "$nCars=8, $platoonSize=8, $nLanes=1, $ploegH=0.5, $controller=0, $sController=\"ACC\", $headway=0.3, $leaderHeadway=1.2, $leaderSpeed=100, $beaconInterval=0.1, $priority=2, $packetSize=200, $0=2, $1=0.3, $repetition=0"
attr leaderHeadway 1.2
attr leaderSpeed 100
attr measurement "$nCars=8, $platoonSize=8, $nLanes=1, $ploegH=0.5, $controller=0, $sController=\"ACC\", $headway=0.3, $leaderHeadway=1.2, $leaderSpeed=100, $beaconInterval=0.1, $priority=2, $packetSize=200, $0=2, $1=0.3"
attr nCars 8
attr nLanes 1
attr network scenario
attr packetSize 200
attr platoonSize 8
attr ploegH 0.5
attr priority 2
attr processid 32054
attr repetition 0
attr replication #0
attr resultdir results
attr runnumber 0
attr sController "\"ACC\""
attr seedset 0
param **.coreDebug false
param **.debug false
param **.headway "${headway = 0.3, 1.2, 0.1, 0.1, 0.1 ! controller}s"
param **.numberOfCars "${nCars = 8}"
param **.numberOfCarsPerPlatoon "${platoonSize = 8}"
param **.numberOfLanes "${nLanes = 1}"
param **.numericController "${controller = 0, 0, 1, 2, 3}"
param **.seed ${repetition}
param **.traffic.nCars ${nCars}
param **.traffic.nLanes ${nLanes}
param **.traffic.platoonInsertDistance "${2, 2, 5, 2, 15 ! controller}m"
param **.traffic.platoonInsertHeadway "${0.3, 1.2, 0, 0.5, 0.8 ! controller}s"
param **.traffic.platoonInsertSpeed ${leaderSpeed}kmph
param **.traffic.platoonInsertTime "1 s"
param **.traffic.platoonLeaderHeadway ${leaderHeadway}s
param **.traffic.platoonSize ${platoonSize}
param **.traffic.platooningVType "\"vtypeauto\""
param **.traffic_type "\"PlatoonsTrafficManager\""
param *.**.nic.mac1609_4.bitrate 6Mbps
param *.**.nic.mac1609_4.txPower 100mW
param *.**.nic.mac1609_4.useServiceChannel false
param *.**.nic.phy80211p.analogueModels "xmldoc(\"config.xml\")"
param *.**.nic.phy80211p.decider "xmldoc(\"config.xml\")"
param *.**.nic.phy80211p.maxTXPower 100mW
param *.**.nic.phy80211p.sensitivity -94dBm
param *.**.nic.phy80211p.thermalNoise -95dBm
param *.**.nic.phy80211p.usePropagationDelay true
param *.**.nic.phy80211p.useThermalNoise true
param *.annotations.draw false
param *.connectionManager.alpha 2.0
param *.connectionManager.carrierFrequency "5.890e9 Hz"
param *.connectionManager.pMax 100mW
param *.connectionManager.sat -94dBm
param *.connectionManager.sendDirect true
param *.manager.autoShutdown true
param *.manager.commandLine "\"sumo-gui --remote-port $port --seed $seed --configuration-file $configFile\""
param *.manager.configFile "\"./sumocfg/freeway.sumo.cfg\""
param *.manager.host "\"localhost\""
param *.manager.margin 25
param *.manager.moduleDisplayString "\"\""
param *.manager.moduleName "\"node\""
param *.manager.moduleType "\"Car\""
param *.manager.updateInterval 0.01s
param *.node[*].appl.simulationDuration "60 s"
param *.node[*].appl_type "\"SimplePlatooningApp\""
param *.node[*].helper.nCars ${nCars}
param *.node[*].helper.nLanes ${nLanes}
param *.node[*].helper.platoonSize ${platoonSize}
param *.node[*].helper_type "\"PositionHelper\""
param *.node[*].mobility.x 0
param *.node[*].mobility.y 0
param *.node[*].mobility.z 1.895
param *.node[*].prot.beaconingInterval "${beaconInterval = 0.1}s"
param *.node[*].prot.packetSize "${packetSize = 200}"
param *.node[*].prot.priority "${priority = 2}"
param *.node[*].prot.useControllerAcceleration true
param *.node[*].protocol_type "\"SimplePlatooningBeaconing\""
param *.node[*].scenario.accHeadway ${headway}s
param *.node[*].scenario.brakingDeceleration "8 mpsps"
param *.node[*].scenario.caccC1 0.5
param *.node[*].scenario.caccOmegaN "0.2 Hz"
param *.node[*].scenario.caccXi 1
param *.node[*].scenario.controller "${sController = \"ACC\", \"ACC\", \"CACC\", \"PLOEG\", \"CONSENSUS\" ! controller}"
param *.node[*].scenario.engineTau "0.5 s"
param *.node[*].scenario.leaderHeadway "${leaderHeadway = 1.2}s"
param *.node[*].scenario.leaderOscillationFrequency "0.2 Hz"
param *.node[*].scenario.leaderSpeed "${leaderSpeed = 100}kmph"
param *.node[*].scenario.ploegH "${ploegH = 0.5}s"
param *.node[*].scenario.ploegKd 0.7
param *.node[*].scenario.ploegKp 0.2
param *.node[*].scenario.startBraking "5 s"
param *.node[*].scenario.useRealisticEngine false
param *.node[*].scenario_type "\"BrakingScenario\""
param *.node[*].unicast.packetLossRate 0
param *.obstacles.debug false
param *.playgroundSizeX 65000m
param *.playgroundSizeY 25000m
param *.playgroundSizeZ 50m
param *.world.use2D false
param *.world.useTorus false

vector 0  scenario.node[0].appl  distance  ETV
vector 1  scenario.node[0].appl  relativeSpeed  ETV
vector 2  scenario.node[0].appl  nodeId  ETV
vector 6  scenario.node[0].appl  acceleration  ETV
vector 7  scenario.node[0].appl  controllerAcceleration  ETV
vector 3  scenario.node[0].appl  speed  ETV
vector 4  scenario.node[0].appl  posx  ETV
vector 5  scenario.node[0].appl  posy  ETV
vector 22  scenario.node[1].appl  distance  ETV
vector 23  scenario.node[1].appl  relativeSpeed  ETV
vector 24  scenario.node[1].appl  nodeId  ETV
vector 28  scenario.node[1].appl  acceleration  ETV
vector 29  scenario.node[1].appl  controllerAcceleration  ETV
vector 25  scenario.node[1].appl  speed  ETV
vector 26  scenario.node[1].appl  posx  ETV
vector 27  scenario.node[1].appl  posy  ETV
vector 44  scenario.node[2].appl  distance  ETV
vector 45  scenario.node[2].appl  relativeSpeed  ETV
vector 46  scenario.node[2].appl  nodeId  ETV
vector 50  scenario.node[2].appl  acceleration  ETV
vector 51  scenario.node[2].appl  controllerAcceleration  ETV
vector 47  scenario.node[2].appl  speed  ETV
vector 48  scenario.node[2].appl  posx  ETV
vector 49  scenario.node[2].appl  posy  ETV
vector 66  scenario.node[3].appl  distance  ETV
vector 67  scenario.node[3].appl  relativeSpeed  ETV
vector 68  scenario.node[3].appl  nodeId  ETV
vector 72  scenario.node[3].appl  acceleration  ETV
vector 73  scenario.node[3].appl  controllerAcceleration  ETV
vector 69  scenario.node[3].appl  speed  ETV
vector 70  scenario.node[3].appl  posx  ETV
vector 71  scenario.node[3].appl  posy  ETV
vector 88  scenario.node[4].appl  distance  ETV
vector 89  scenario.node[4].appl  relativeSpeed  ETV
vector 90  scenario.node[4].appl  nodeId  ETV
vector 94  scenario.node[4].appl  acceleration  ETV
vector 95  scenario.node[4].appl  controllerAcceleration  ETV
vector 91  scenario.node[4].appl  speed  ETV
vector 92  scenario.node[4].appl  posx  ETV
vector 93  scenario.node[4].appl  posy  ETV
vector 110  scenario.node[5].appl  distance  ETV
vector 111  scenario.node[5].appl  relativeSpeed  ETV
vector 112  scenario.node[5].appl  nodeId  ETV
vector 116  scenario.node[5].appl  acceleration  ETV
vector 117  scenario.node[5].appl  controllerAcceleration  ETV
vector 113  scenario.node[5].appl  speed  ETV
vector 114  scenario.node[5].appl  posx  ETV
vector 115  scenario.node[5].appl  posy  ETV
vector 132  scenario.node[6].appl  distance  ETV
vector 133  scenario.node[6].appl  relativeSpeed  ETV
vector 134  scenario.node[6].appl  nodeId  ETV
vector 138  scenario.node[6].appl  acceleration  ETV
vector 139  scenario.node[6].appl  controllerAcceleration  ETV
vector 135  scenario.node[6].appl  speed  ETV
vector 136  scenario.node[6].appl  posx  ETV
vector 137  scenario.node[6].appl  posy  ETV
vector 154  scenario.node[7].appl  distance  ETV
vector 155  scenario.node[7].appl  relativeSpeed  ETV
vector 156  scenario.node[7].appl  nodeId  ETV
vector 160  scenario.node[7].appl  acceleration  ETV
vector 161  scenario.node[7].appl  controllerAcceleration  ETV
vector 157  scenario.node[7].appl  speed  ETV
vector 158  scenario.node[7].appl  posx  ETV
vector 159  scenario.node[7].appl  posy  ETV
vector 80  scenario.node[3].prot  frontDelay  ETV
vector 78  scenario.node[3].prot  frontDelayId  ETV
vector 58  scenario.node[2].prot  frontDelay  ETV
vector 56  scenario.node[2].prot  frontDelayId  ETV
vector 168  scenario.node[7].prot  frontDelay  ETV
vector 166  scenario.node[7].prot  frontDelayId  ETV
vector 35  scenario.node[1].prot  leaderDelay  ETV
vector 33  scenario.node[1].prot  leaderDelayId  ETV
vector 36  scenario.node[1].prot  frontDelay  ETV
vector 34  scenario.node[1].prot  frontDelayId  ETV
vector 57  scenario.node[2].prot  leaderDelay  ETV
vector 55  scenario.node[2].prot  leaderDelayId  ETV
vector 79  scenario.node[3].prot  leaderDelay  ETV
vector 77  scenario.node[3].prot  leaderDelayId  ETV
vector 101  scenario.node[4].prot  leaderDelay  ETV
vector 99  scenario.node[4].prot  leaderDelayId  ETV
vector 123  scenario.node[5].prot  leaderDelay  ETV
vector 121  scenario.node[5].prot  leaderDelayId  ETV
vector 145  scenario.node[6].prot  leaderDelay  ETV
vector 143  scenario.node[6].prot  leaderDelayId  ETV
vector 167  scenario.node[7].prot  leaderDelay  ETV
vector 165  scenario.node[7].prot  leaderDelayId  ETV
vector 124  scenario.node[5].prot  frontDelay  ETV
vector 122  scenario.node[5].prot  frontDelayId  ETV
vector 102  scenario.node[4].prot  frontDelay  ETV
vector 100  scenario.node[4].prot  frontDelayId  ETV
vector 146  scenario.node[6].prot  frontDelay  ETV
vector 144  scenario.node[6].prot  frontDelayId  ETV
vector 8  scenario.node[0].prot  nodeId  ETV
vector 9  scenario.node[0].prot  busyTime  ETV
vector 10  scenario.node[0].prot  collisions  ETV
vector 30  scenario.node[1].prot  nodeId  ETV
vector 31  scenario.node[1].prot  busyTime  ETV
vector 32  scenario.node[1].prot  collisions  ETV
vector 52  scenario.node[2].prot  nodeId  ETV
vector 53  scenario.node[2].prot  busyTime  ETV
vector 54  scenario.node[2].prot  collisions  ETV
vector 74  scenario.node[3].prot  nodeId  ETV
vector 75  scenario.node[3].prot  busyTime  ETV
vector 76  scenario.node[3].prot  collisions  ETV
vector 96  scenario.node[4].prot  nodeId  ETV
vector 97  scenario.node[4].prot  busyTime  ETV
vector 98  scenario.node[4].prot  collisions  ETV
vector 118  scenario.node[5].prot  nodeId  ETV
vector 119  scenario.node[5].prot  busyTime  ETV
vector 120  scenario.node[5].prot  collisions  ETV
vector 140  scenario.node[6].prot  nodeId  ETV
vector 141  scenario.node[6].prot  busyTime  ETV
vector 142  scenario.node[6].prot  collisions  ETV
vector 162  scenario.node[7].prot  nodeId  ETV
vector 163  scenario.node[7].prot  busyTime  ETV
vector 164  scenario.node[7].prot  collisions  ETV
7	232	1.11	-8.430731206488e-07
7	788	1.21	-8.247038785214e-07
7	1344	1.31	-7.948429328053e-07
7	1900	1.41	-7.5609037608615e-07
7	2456	1.51	-7.1073863239235e-07
7	3012	1.61	-6.6078666094427e-07
7	3568	1.71	-6.079568990458e-07
7	4124	1.81	-5.5371389606762e-07
7	4680	1.91	-4.9928438983216e-07
7	5244	2.01	-4.4567811841034e-07
7	5800	2.11	-3.9370868165634e-07
7	6356	2.21	-3.4401411852514e-07
7	6912	2.31	-2.9707706872273e-07
7	7468	2.41	-2.5324398578164e-07
7	8024	2.51	-2.1274344064182e-07
7	8580	2.61	-1.7570315336002e-07
7	9136	2.71	-1.4216582755466e-07
7	9692	2.81	-1.1210364547765e-07
7	10248	2.91	-8.5431519636359e-08
7	10812	3.01	-6.2018816748832e-08
7	11368	3.11	-4.1699859565369e-08
7	11924	3.21	-2.4283316690799e-08
7	12480	3.31	-9.5601571103998e-09
7	13036	3.41	2.6894362292751e-09
7	13592	3.51	1.2690140493987e-08
7	14148	3.61	2.0666576006079e-08
7	14704	3.71	2.6839355626862e-08
7	15260	3.81	3.1421798496467e-08
7	15816	3.91	3.4617407607129e-08
7	16380	4.01	3.6617997523081e-08
7	16936	4.11	3.7602347902066e-08
7	17492	4.21	3.7735404134764e-08
7	18048	4.31	3.7167730226884e-08
7	18604	4.41	3.6035434192172e-08
7	19160	4.51	3.446024621212e-08
7	19716	4.61	3.2549973383311e-08
7	20272	4.71	3.0399071704323e-08
7	20828	4.81	2.8089345960325e-08
7	21384	4.91	2.5690727767369e-08
7	21949	5.01	-8
7	22505	5.11	-8
7	23061	5.21	-8
7	23617	5.31	-8
7	24173	5.41	-8
7	24729	5.51	-8
7	25285	5.61	-8
7	25841	5.71	-8
7	26397	5.81	-8
7	26953	5.91	-8
7	27517	6.01	-8
7	28073	6.11	-8
7	28629	6.21	-8
7	29185	6.31	-8
7	29741	6.41	-8
7	30297	6.51	-8
7	30853	6.61	-8
7	31409	6.71	-8
7	31965	6.81	-8
7	32521	6.91	-8
7	33085	7.01	-8
7	33641	7.11	-8
7	34197	7.21	-8
7	34753	7.31	-8
7	35309	7.41	-8
7	35865	7.51	-8
7	36421	7.61	-8
7	36977	7.71	-8
7	37533	7.81	-8
7	38089	7.91	-8
7	38653	8.01	-8
7	39209	8.11	-8
7	39765	8.21	-8
7	40321	8.31	-8
7	40877	8.41	-8
7	41433	8.51	-8
7	41989	8.61	-8
7	42545	8.71	-8
7	43101	8.81	-8
7	43657	8.91	-8
7	44221	9.01	-8
7	44777	9.11	-8
7	45333	9.21	-8
7	45889	9.31	-8
7	46445	9.41	-8
6	232	1.11	-1.2391545567425e-07
6	788	1.21	-2.514333630188e-07
6	1344	1.31	-3.5153284727585e-07
6	1900	1.41	-4.2734420446777e-07
6	2456	1.51	-4.8187125401e-07
6	3012	1.61	-5.1795971955926e-07
6	3568	1.71	-5.3827413637464e-07
6	4124	1.81	-5.4528506154838e-07
6	4680	1.91	-5.4125663950799e-07
6	5244	2.01	-5.2824375984528e-07
6	5800	2.11	-5.080941889446e-07
6	6356	2.21	-4.8245141215375e-07
6	6912	2.31	-4.5276244975412e-07
6	7468	2.41	-4.202860282021e-07
6	8024	2.51	-3.8610643571246e-07
6	8580	2.61	-3.5114133822844e-07
6	9136	2.71	-3.1616025353287e-07
6	9692	2.81	-2.8179307776099e-07
6	10248	2.91	-2.4854536206931e-07
6	10812	3.01	-2.1681287876163e-07
6	11368	3.11	-1.8689298997288e-07
6	11924	3.21	-1.5899530581009e-07
6	12480	3.31	-1.3325838210676e-07
6	13036	3.41	-1.0975469422192e-07
6	13592	3.51	-8.8505203166278e-08
6	14148	3.61	-6.948575048682e-08
6	14704	3.71	-5.263665059374e-08
6	15260	3.81	-3.7870506730542e-08
6	15816	3.91	-2.5077895315917e-08
6	16380	4.01	-1.4133405557004e-08
6	16936	4.11	-4.9016790626411e-09
6	17492	4.21	2.7593927143243e-09
6	18048	4.31	8.9940499492513e-09
6	18604	4.41	1.3947598631603e-08
6	19160	4.51	1.7761081494427e-08
6	19716	4.61	2.0570567471623e-08
6	20272	4.71	2.2507151697937e-08
6	20828	4.81	2.3691626438449e-08
6	21384	4.91	2.4239099616352e-08
6	21949	5.01	-0.15686272130075
6	22505	5.11	-1.5658956677317
6	23061	5.21	-2.7217934498047
6	23617	5.31	-3.6700322301574
6	24173	5.41	-4.447918301495
6	24729	5.51	-5.0860558176137
6	25285	5.61	-5.6095508440482
6	25841	5.71	-6.0389990989773
6	26397	5.81	-6.3912962447926
6	26953	5.91	-6.6803026094128
6	27517	6.01	-6.9173884892816
6	28073	6.11	-7.1118814877572
6	28629	6.21	-7.2714334883941
6	29185	6.31	-7.402321700858
6	29741	6.41	-7.5096956234258
6	30297	6.51	-7.597779638256
6	30853	6.61	-7.670039210068
6	31409	6.71	-7.7293172269538
6	31965	6.81	-7.7779458473259
6	32521	6.91	-7.8178382533736
6	33085	7.01	-7.8505639208522
6	33641	7.11	-7.8774103665308
6	34197	7.21	-7.8994338026012
6	34753	7.31	-7.9175006909391
6	35309	7.41	-7.9323218320713
6	35865	7.51	-7.9444803300012
6	36421	7.61	-7.9544545331069
6	36977	7.71	-7.9626368536672
6	37533	7.81	-7.9693492064278
6	38089	7.91	-7.9748556736032
6	38653	8.01	-7.9793728945889
6	39209	8.11	-7.9830785891447
6	39765	8.21	-7.9861185493733
6	40321	8.31	-7.9886123755786
6	40877	8.41	-7.9906581816663
6	41433	8.51	-7.9923364552122
6	41989	8.61	-7.9937132240623
6	42545	8.71	-7.9948426540478
6	43101	8.81	-7.9957691800162
6	43657	8.91	-7.9965292540192
6	44221	9.01	0
6	44777	9.11	0
6	45333	9.21	0
6	45889	9.31	0
6	46445	9.41	0
5	232	1.11	36.55
5	788	1.21	36.55
5	1344	1.31	36.55
5	1900	1.41	36.55
5	2456	1.51	36.55
5	3012	1.61	36.55
5	3568	1.71	36.55
5	4124	1.81	36.55
5	4680	1.91	36.55
5	5244	2.01	36.55
5	5800	2.11	36.55
5	6356	2.21	36.55
5	6912	2.31	36.55
5	7468	2.41	36.55
5	8024	2.51	36.55
5	8580	2.61	36.55
5	9136	2.71	36.55
5	9692	2.81	36.55
5	10248	2.91	36.55
5	10812	3.01	36.55
5	11368	3.11	36.55
5	11924	3.21	36.55
5	12480	3.31	36.55
5	13036	3.41	36.55
5	13592	3.51	36.55
5	14148	3.61	36.55
5	14704	3.71	36.55
5	15260	3.81	36.55
5	15816	3.91	36.55
5	16380	4.01	36.55
5	16936	4.11	36.55
5	17492	4.21	36.55
5	18048	4.31	36.55
5	18604	4.41	36.55
5	19160	4.51	36.55
5	19716	4.61	36.55
5	20272	4.71	36.55
5	20828	4.81	36.55
5	21384	4.91	36.55
5	21949	5.01	36.55
5	22505	5.11	36.55
5	23061	5.21	36.55
5	23617	5.31	36.55
5	24173	5.41	36.55
5	24729	5.51	36.55
5	25285	5.61	36.55
5	25841	5.71	36.55
5	26397	5.81	36.55
5	26953	5.91	36.55
5	27517	6.01	36.55
5	28073	6.11	36.55
5	28629	6.21	36.55
5	29185	6.31	36.55
5	29741	6.41	36.55
5	30297	6.51	36.55
5	30853	6.61	36.55
5	31409	6.71	36.55
5	31965	6.81	36.55
5	32521	6.91	36.55
5	33085	7.01	36.55
5	33641	7.11	36.55
5	34197	7.21	36.55
5	34753	7.31	36.55
5	35309	7.41	36.55
5	35865	7.51	36.55
5	36421	7.61	36.55
5	36977	7.71	36.55
5	37533	7.81	36.55
5	38089	7.91	36.55
5	38653	8.01	36.55
5	39209	8.11	36.55
5	39765	8.21	36.55
5	40321	8.31	36.55
5	40877	8.41	36.55
5	41433	8.51	36.55
5	41989	8.61	36.55
5	42545	8.71	36.55
5	43101	8.81	36.55
5	43657	8.91	36.55
5	44221	9.01	36.55
5	44777	9.11	36.55
5	45333	9.21	36.55
5	45889	9.31	36.55
5	46445	9.41	36.55
4	232	1.11	136.55097122166
4	788	1.21	139.32874908245
4	1344	1.31	142.10652694052
4	1900	1.41	144.88430479492
4	2456	1.51	147.66208264494
4	3012	1.61	150.43986049007
4	3568	1.71	153.21763832998
4	4124	1.81	155.99541616449
4	4680	1.91	158.77319399355
4	5244	2.01	161.55097181723
4	5800	2.11	164.32874963567
4	6356	2.21	167.10652744907
4	6912	2.31	169.88430525771
4	7468	2.41	172.66208306189
4	8024	2.51	175.43986086193
4	8580	2.61	178.21763865819
4	9136	2.71	180.995416451
4	9692	2.81	183.77319424072
4	10248	2.91	186.55097202768
4	10812	3.01	189.32874981223
4	11368	3.11	192.10652759466
4	11924	3.21	194.88430537529
4	12480	3.31	197.66208315437
4	13036	3.41	200.43986093217
4	13592	3.51	203.21763870892
4	14148	3.61	205.99541648482
4	14704	3.71	208.77319426006
4	15260	3.81	211.5509720348
4	15816	3.91	214.32874980918
4	16380	4.01	217.10652758334
4	16936	4.11	219.88430535738
4	17492	4.21	222.66208313138
4	18048	4.31	225.43986090543
4	18604	4.41	228.21763867957
4	19160	4.51	230.99541645386
4	19716	4.61	233.77319422833
4	20272	4.71	236.55097200301
4	20828	4.81	239.32874977792
4	21384	4.91	242.10652755307
4	21949	5.01	244.88427395591
4	22505	5.11	247.6568386607
4	23061	5.21	250.41142148076
4	23617	5.31	253.13688075624
4	24173	5.41	255.82407644543
4	24729	5.51	258.46551053064
4	25285	5.61	261.05503202583
4	25841	5.71	263.58759498004
4	26397	5.81	266.05905995598
4	26953	5.91	268.46603117331
4	27517	6.01	270.80572290941
4	28073	6.11	273.07584990145
4	28629	6.21	275.27453743796
4	29185	6.31	277.40024760257
4	29741	6.41	279.45171876821
4	30297	6.51	281.42791596124
4	30853	6.61	283.32799014281
4	31409	6.71	285.15124480534
4	31965	6.81	286.89710857001
4	32521	6.91	288.5651127072
4	33085	7.01	290.15487269533
4	33641	7.11	291.6660730928
4	34197	7.21	293.09845512763
4	34753	7.31	294.45180651665
4	35309	7.41	295.72595311374
4	35865	7.51	296.92075205841
4	36421	7.61	298.03608615532
4	36977	7.71	299.07185926345
4	37533	7.81	300.02799251368
4	38089	7.91	300.90442120589
4	38653	8.01	301.70109226342
4	39209	8.11	302.41796214492
4	39765	8.21	303.05499513132
4	40321	8.31	303.61216192057
4	40877	8.41	304.08943847474
4	41433	8.51	304.48680507439
4	41989	8.61	304.80424554269
4	42545	8.71	305.04174660901
4	43101	8.81	305.19929738681
4	43657	8.91	305.27688894534
4	44221	9.01	305.28489798169
4	44777	9.11	305.28489798169
4	45333	9.21	305.28489798169
4	45889	9.31	305.28489798169
4	46445	9.41	305.28489798169
3	232	1.11	27.777778619612
3	788	1.21	27.777778599967
3	1344	1.31	27.777778569105
3	1900	1.41	27.777778529595
3	2456	1.51	27.777778483698
3	3012	1.61	27.777778433385
3	3568	1.71	27.777778380352
3	4124	1.81	27.777778326039
3	4680	1.91	27.77777827165
3	5244	2.01	27.777778218173
3	5800	2.11	27.777778166406
3	6356	2.21	27.777778116967
3	6912	2.31	27.777778070327
3	7468	2.41	27.777778026819
3	8024	2.51	27.77777798666
3	8580	2.61	27.77777794997
3	9136	2.71	27.777777916782
3	9692	2.81	27.777777887063
3	10248	2.91	27.777777860724
3	10812	3.01	27.777777837628
3	11368	3.11	27.777777817609
3	11924	3.21	27.777777800471
3	12480	3.31	27.777777786005
3	13036	3.41	27.777777773991
3	13592	3.51	27.777777764203
3	14148	3.61	27.777777756416
3	14704	3.71	27.777777750412
3	15260	3.81	27.777777745977
3	15816	3.91	27.77777774291
3	16380	4.01	27.777777741018
3	16936	4.11	27.777777740126
3	17492	4.21	27.77777774007
3	18048	4.31	27.7777777407
3	18604	4.41	27.777777741882
3	19160	4.51	27.777777743495
3	19716	4.61	27.777777745434
3	20272	4.71	27.777777747604
3	20828	4.81	27.777777749925
3	21384	4.91	27.777777752329
3	21949	5.01	27.776209127303
3	22505	5.11	27.680725600518
3	23061	5.21	27.458674491554
3	23617	5.31	27.132793881731
3	24173	5.41	26.7217369174
3	24729	5.51	26.240805675459
3	25285	5.61	25.702553188676
3	25841	5.71	25.117277316141
3	26397	5.81	24.493425889048
3	26953	5.91	23.837929071358
3	27517	6.01	23.156472011293
3	28073	6.11	22.453718510531
3	28629	6.21	21.733494510849
3	29185	6.31	20.998938617081
3	29741	6.41	20.252625578365
3	30297	6.51	19.496667585781
3	30853	6.61	18.732797371687
3	31409	6.71	17.96243638013
3	31965	6.81	17.186750690316
3	32521	6.91	16.40669689334
3	33085	7.01	15.623059727079
3	33641	7.11	14.836482949919
3	34197	7.21	14.047494667954
3	34753	7.31	13.256528112123
3	35309	7.41	12.463938682689
3	35865	7.51	11.670017931653
3	36421	7.61	10.875005033206
3	36977	7.71	10.079096193486
3	37533	7.81	9.2824523698668
3	38089	7.91	8.4852056034545
3	38653	8.01	7.6874642139473
3	39209	8.11	6.8893170612252
3	39765	8.21	6.0908370413395
3	40321	8.31	5.2920839544422
3	40877	8.41	4.493106857486
3	41433	8.51	3.693945994259
3	41989	8.61	2.894634378684
3	42545	8.71	2.0951990936768
3	43101	8.81	1.295662356661
3	43657	8.91	0.49604239366253
3	44221	9.01	0
3	44777	9.11	0
3	45333	9.21	0
3	45889	9.31	0
3	46445	9.41	0
1	232	1.11	0
1	788	1.21	0
1	1344	1.31	0
1	1900	1.41	0
1	2456	1.51	0
1	3012	1.61	0
1	3568	1.71	0
1	4124	1.81	0
1	4680	1.91	0
1	5244	2.01	0
1	5800	2.11	0
1	6356	2.21	0
1	6912	2.31	0
1	7468	2.41	0
1	8024	2.51	0
1	8580	2.61	0
1	9136	2.71	0
1	9692	2.81	0
1	10248	2.91	0
1	10812	3.01	0
1	11368	3.11	0
1	11924	3.21	0
1	12480	3.31	0
1	13036	3.41	0
1	13592	3.51	0
1	14148	3.61	0
1	14704	3.71	0
1	15260	3.81	0
1	15816	3.91	0
1	16380	4.01	0
1	16936	4.11	0
1	17492	4.21	0
1	18048	4.31	0
1	18604	4.41	0
1	19160	4.51	0
1	19716	4.61	0
1	20272	4.71	0
1	20828	4.81	0
1	21384	4.91	0
1	21949	5.01	0
1	22505	5.11	0
1	23061	5.21	0
1	23617	5.31	0
1	24173	5.41	0
1	24729	5.51	0
1	25285	5.61	0
1	25841	5.71	0
1	26397	5.81	0
1	26953	5.91	0
1	27517	6.01	0
1	28073	6.11	0
1	28629	6.21	0
1	29185	6.31	0
1	29741	6.41	0
1	30297	6.51	0
1	30853	6.61	0
1	31409	6.71	0
1	31965	6.81	0
1	32521	6.91	0
1	33085	7.01	0
1	33641	7.11	0
1	34197	7.21	0
1	34753	7.31	0
1	35309	7.41	0
1	35865	7.51	0
1	36421	7.61	0
1	36977	7.71	0
1	37533	7.81	0
1	38089	7.91	0
1	38653	8.01	0
1	39209	8.11	0
1	39765	8.21	0
1	40321	8.31	0
1	40877	8.41	0
1	41433	8.51	0
1	41989	8.61	0
1	42545	8.71	0
1	43101	8.81	0
1	43657	8.91	0
1	44221	9.01	0
1	44777	9.11	0
1	45333	9.21	0
1	45889	9.31	0
1	46445	9.41	0
0	232	1.11	-1
0	788	1.21	-1
0	1344	1.31	-1
0	1900	1.41	-1
0	2456	1.51	-1
0	3012	1.61	-1
0	3568	1.71	-1
0	4124	1.81	-1
0	4680	1.91	-1
0	5244	2.01	-1
0	5800	2.11	-1
0	6356	2.21	-1
0	6912	2.31	-1
0	7468	2.41	-1
0	8024	2.51	-1
0	8580	2.61	-1
0	9136	2.71	-1
0	9692	2.81	-1
0	10248	2.91	-1
0	10812	3.01	-1
0	11368	3.11	-1
0	11924	3.21	-1
0	12480	3.31	-1
0	13036	3.41	-1
0	13592	3.51	-1
0	14148	3.61	-1
0	14704	3.71	-1
0	15260	3.81	-1
0	15816	3.91	-1
0	16380	4.01	-1
0	16936	4.11	-1
0	17492	4.21	-1
0	18048	4.31	-1
0	18604	4.41	-1
0	19160	4.51	-1
0	19716	4.61	-1
0	20272	4.71	-1
0	20828	4.81	-1
0	21384	4.91	-1
0	21949	5.01	-1
0	22505	5.11	-1
0	23061	5.21	-1
0	23617	5.31	-1
0	24173	5.41	-1
0	24729	5.51	-1
0	25285	5.61	-1
0	25841	5.71	-1
0	26397	5.81	-1
0	26953	5.91	-1
0	27517	6.01	-1
0	28073	6.11	-1
0	28629	6.21	-1
0	29185	6.31	-1
0	29741	6.41	-1
0	30297	6.51	-1
0	30853	6.61	-1
0	31409	6.71	-1
0	31965	6.81	-1
0	32521	6.91	-1
0	33085	7.01	-1
0	33641	7.11	-1
0	34197	7.21	-1
0	34753	7.31	-1
0	35309	7.41	-1
0	35865	7.51	-1
0	36421	7.61	-1
0	36977	7.71	-1
0	37533	7.81	-1
0	38089	7.91	-1
0	38653	8.01	-1
0	39209	8.11	-1
0	39765	8.21	-1
0	40321	8.31	-1
0	40877	8.41	-1
0	41433	8.51	-1
0	41989	8.61	-1
0	42545	8.71	-1
0	43101	8.81	-1
0	43657	8.91	-1
0	44221	9.01	-1
0	44777	9.11	-1
0	45333	9.21	-1
0	45889	9.31	-1
0	46445	9.41	-1
2	232	1.11	0
2	788	1.21	0
2	1344	1.31	0
2	1900	1.41	0
2	2456	1.51	0
2	3012	1.61	0
2	3568	1.71	0
2	4124	1.81	0
2	4680	1.91	0
2	5244	2.01	0
2	5800	2.11	0
2	6356	2.21	0
2	6912	2.31	0
2	7468	2.41	0
2	8024	2.51	0
2	8580	2.61	0
2	9136	2.71	0
2	9692	2.81	0
2	10248	2.91	0
2	10812	3.01	0
2	11368	3.11	0
2	11924	3.21	0
2	12480	3.31	0
2	13036	3.41	0
2	13592	3.51	0
2	14148	3.61	0
2	14704	3.71	0
2	15260	3.81	0
2	15816	3.91	0
2	16380	4.01	0
2	16936	4.11	0
2	17492	4.21	0
2	18048	4.31	0
2	18604	4.41	0
2	19160	4.51	0
2	19716	4.61	0
2	20272	4.71	0
2	20828	4.81	0
2	21384	4.91	0
2	21949	5.01	0
2	22505	5.11	0
2	23061	5.21	0
2	23617	5.31	0
2	24173	5.41	0
2	24729	5.51	0
2	25285	5.61	0
2	25841	5.71	0
2	26397	5.81	0
2	26953	5.91	0
2	27517	6.01	0
2	28073	6.11	0
2	28629	6.21	0
2	29185	6.31	0
2	29741	6.41	0
2	30297	6.51	0
2	30853	6.61	0
2	31409	6.71	0
2	31965	6.81	0
2	32521	6.91	0
2	33085	7.01	0
2	33641	7.11	0
2	34197	7.21	0
2	34753	7.31	0
2	35309	7.41	0
2	35865	7.51	0
2	36421	7.61	0
2	36977	7.71	0
2	37533	7.81	0
2	38089	7.91	0
2	38653	8.01	0
2	39209	8.11	0
2	39765	8.21	0
2	40321	8.31	0
2	40877	8.41	0
2	41433	8.51	0
2	41989	8.61	0
2	42545	8.71	0
2	43101	8.81	0
2	43657	8.91	0
2	44221	9.01	0
2	44777	9.11	0
2	45333	9.21	0
2	45889	9.31	0
2	46445	9.41	0
10	5102	2	0
10	10670	3	0
10	16238	4	0
10	21807	5	0
10	27375	6	0
10	32943	7	0
10	38511	8	0
10	44079	9	0
9	5102	2	0.022969
9	10670	3	0.02625
9	16238	4	0.02625
9	21807	5	0.02625
9	27375	6	0.02625
9	32943	7	0.02625
9	38511	8	0.02625
9	44079	9	0.02625
8	5102	2	0
8	10670	3	0
8	16238	4	0
8	21807	5	0
8	27375	6	0
8	32943	7	0
8	38511	8	0
8	44079	9	0
29	233	1.11	-1.7621895225991e-06
29	789	1.21	-1.6911626741963e-06
29	1345	1.31	-1.5772180616362e-06
29	1901	1.41	-1.4327917678969e-06
29	2457	1.51	-1.2694844399401e-06
29	3013	1.61	-1.0976451285671e-06
29	3569	1.71	-9.2608496101339e-07
29	4125	1.81	-7.6191560793859e-07
29	4681	1.91	-6.1050158528531e-07
29	5245	2.01	-4.7551118657433e-07
29	5801	2.11	-3.5904767929177e-07
29	6357	2.21	-2.6184038759425e-07
29	6913	2.31	-1.834743521556e-07
29	7469	2.41	-1.2264043824928e-07
29	8025	2.51	-7.7387744212842e-08
29	8581	2.61	-4.5364082268407e-08
29	9137	2.71	-2.4034013298054e-08
29	9693	2.81	-1.0864544227237e-08
29	10249	2.91	-3.4744385146723e-09
29	10813	3.01	2.5313617868491e-10
29	11369	3.11	2.0971313574591e-09
29	11925	3.21	3.460062458771e-09
29	12481	3.31	5.3595303010448e-09
29	13037	3.41	8.44595741493e-09
29	13593	3.51	1.3039063754642e-08
29	14149	3.61	1.9179572892843e-08
29	14705	3.71	2.6687268691224e-08
29	15261	3.81	3.5223523653371e-08
29	15817	3.91	4.4351228467576e-08
29	16381	4.01	5.3590116640597e-08
29	16937	4.11	6.2464302767277e-08
29	17493	4.21	7.0540619271734e-08
29	18049	4.31	7.7457449639458e-08
29	18605	4.41	8.2943024892756e-08
29	19161	4.51	8.6824479457922e-08
29	19717	4.61	8.9028417230944e-08
29	20273	4.71	8.9574930584035e-08
29	20829	4.81	8.8565916674573e-08
29	21385	4.91	8.6169720248108e-08
29	21950	5.01	8.2603760276356e-08
29	22506	5.11	-0.27077034042546
29	23062	5.21	-0.95790452437394
29	23618	5.31	-1.9488273774963
29	24174	5.41	-3.1320435219387
29	24730	5.51	-4.4036386197312
29	25286	5.61	-5.6722115768217
29	25842	5.71	-6.8622108247136
29	26398	5.81	-7.9157481814969
29	26954	5.91	-8.7930424941451
29	27518	6.01	-9.4717013453324
29	28074	6.11	-9.9450830848901
29	28630	6.21	-10.219995070011
29	29186	6.31	-10.313979941364
29	29742	6.41	-10.252423298641
29	30298	6.51	-10.065686845631
29	30854	6.61	-9.7864345649679
29	31410	6.71	-9.447279182761
29	31966	6.81	-9.0788351599751
29	32522	6.91	-8.7082252847828
29	33086	7.01	-8.3580526678593
29	33642	7.11	-8.0458200090797
29	34198	7.21	-7.783754289249
29	34754	7.31	-7.5789779005036
29	35310	7.41	-7.4339565646735
29	35866	7.51	-7.3471497296414
29	36422	7.61	-7.3137897295919
29	36978	7.71	-7.3267209094106
29	37534	7.81	-7.3772381113621
29	38090	7.91	-7.4558743490479
29	38654	8.01	-7.5530991421063
29	39210	8.11	-7.6599009472051
29	39766	8.21	-7.768238625447
29	40322	8.31	-7.8713573218657
29	40878	8.41	-7.9639730566631
29	41434	8.51	-8.0423374641732
29	41990	8.61	-8.1041993427133
29	42546	8.71	-8.1486830103017
29	43102	8.81	-8.1761050227743
29	43658	8.91	-8.1877508119509
29	44222	9.01	-7.4392205032956
29	44778	9.11	-4.7967124937337
29	45334	9.21	-2.3197396351595
29	45890	9.31	-0.1787569011352
29	46446	9.41	-0.1787569011352
28	233	1.11	-2.5971971240324e-07
28	789	1.21	-5.2313708920337e-07
28	1345	1.31	-7.2191816968825e-07
28	1901	1.41	-8.6123890241652e-07
28	2457	1.51	-9.4750056689463e-07
28	3013	1.61	-9.8791801406151e-07
28	3569	1.71	-9.9011430165774e-07
28	4125	1.81	-9.6175583053082e-07
28	4681	1.91	-9.1023046877581e-07
28	5245	2.01	-8.4238962472227e-07
28	5801	2.11	-7.6434965023964e-07
28	6357	2.21	-6.8136465358748e-07
28	6913	2.31	-5.9775473459922e-07
28	7469	2.41	-5.1689532654109e-07
28	8025	2.51	-4.4125094689207e-07
28	8581	2.61	-3.7244873851705e-07
28	9137	2.71	-3.1137865619257e-07
28	9693	2.81	-2.5831532468601e-07
28	10249	2.91	-2.1304025210611e-07
28	10813	3.01	-1.7497221449503e-07
28	11369	3.11	-1.4328875863612e-07
28	11925	3.21	-1.1703242819294e-07
28	12481	3.31	-9.5206331707232e-08
28	13037	3.41	-7.6845907415191e-08
28	13593	3.51	-6.1079319380042e-08
28	14149	3.61	-4.7160853000605e-08
28	14705	3.71	-3.4496494549785e-08
28	15261	3.81	-2.2648194430985e-08
28	15817	3.91	-1.1328182836223e-08
28	16381	4.01	-3.8333780594257e-10
28	16937	4.11	1.0224709967588e-08
28	17493	4.21	2.0445867221497e-08
28	18049	4.31	3.0168223474902e-08
28	18605	4.41	3.9243985838766e-08
28	19161	4.51	4.7513992740278e-08
28	19717	4.61	5.4825122219881e-08
28	20273	4.71	6.1049121313772e-08
28	20829	4.81	6.6092553652197e-08
28	21385	4.91	6.9906036515022e-08
28	21950	5.01	7.2480332846681e-08
28	22506	5.11	-0.02064199442593
28	23062	5.21	-0.13020564891804
28	23618	5.31	-0.37610124812453
28	24174	5.41	-0.77700106417602
28	24730	5.51	-1.3288798482396
28	25286	5.61	-2.0109797419394
28	25842	5.71	-2.7914268870603
28	26398	5.81	-3.6322817579844
28	26954	5.91	-4.4938659415649
28	27518	6.01	-5.338269724691
28	28074	6.11	-6.1320032211047
28	28630	6.21	-6.8478056537344
28	29186	6.31	-7.4656705765697
28	29742	6.41	-7.9731779870695
28	30298	6.51	-8.3652470163479
28	30854	6.61	-8.6434354869855
28	31410	6.71	-8.814915974235
28	31966	6.81	-8.8912533959498
28	32522	6.91	-8.8870981598554
28	33086	7.01	-8.8188932103797
28	33642	7.11	-8.7036746383717
28	34198	7.21	-8.5580254401123
28	34754	7.31	-8.3972219487737
28	35310	7.41	-8.2345935867199
28	35866	7.51	-8.0810998074393
28	36422	7.61	-7.9451140410564
28	36978	7.71	-7.8323934885843
28	37534	7.81	-7.746205844332
28	38090	7.91	-7.6875793700841
28	38654	8.01	-7.6556409369351
28	39210	8.11	-7.6480073046667
28	39766	8.21	-7.6611975576879
28	40322	8.31	-7.6910387555656
28	40878	8.41	-7.7330419777963
28	41434	8.51	-7.7827315682061
28	41990	8.61	-7.8359160879398
28	42546	8.71	-7.888894910078
28	43102	8.81	-7.9385992544741
28	43658	8.91	-7.9826705710412
28	44222	9.01	-7.9916203516135
28	44778	9.11	-7.6221486022487
28	45334	9.21	-6.8591271013235
28	45890	9.31	0
28	46446	9.41	0
27	233	1.11	36.55
27	789	1.21	36.55
27	1345	1.31	36.55
27	1901	1.41	36.55
27	2457	1.51	36.55
27	3013	1.61	36.55
27	3569	1.71	36.55
27	4125	1.81	36.55
27	4681	1.91	36.55
27	5245	2.01	36.55
27	5801	2.11	36.55
27	6357	2.21	36.55
27	6913	2.31	36.55
27	7469	2.41	36.55
27	8025	2.51	36.55
27	8581	2.61	36.55
27	9137	2.71	36.55
27	9693	2.81	36.55
27	10249	2.91	36.55
27	10813	3.01	36.55
27	11369	3.11	36.55
27	11925	3.21	36.55
27	12481	3.31	36.55
27	13037	3.41	36.55
27	13593	3.51	36.55
27	14149	3.61	36.55
27	14705	3.71	36.55
27	15261	3.81	36.55
27	15817	3.91	36.55
27	16381	4.01	36.55
27	16937	4.11	36.55
27	17493	4.21	36.55
27	18049	4.31	36.55
27	18605	4.41	36.55
27	19161	4.51	36.55
27	19717	4.61	36.55
27	20273	4.71	36.55
27	20829	4.81	36.55
27	21385	4.91	36.55
27	21950	5.01	36.55
27	22506	5.11	36.55
27	23062	5.21	36.55
27	23618	5.31	36.55
27	24174	5.41	36.55
27	24730	5.51	36.55
27	25286	5.61	36.55
27	25842	5.71	36.55
27	26398	5.81	36.55
27	26954	5.91	36.55
27	27518	6.01	36.55
27	28074	6.11	36.55
27	28630	6.21	36.55
27	29186	6.31	36.55
27	29742	6.41	36.55
27	30298	6.51	36.55
27	30854	6.61	36.55
27	31410	6.71	36.55
27	31966	6.81	36.55
27	32522	6.91	36.55
27	33086	7.01	36.55
27	33642	7.11	36.55
27	34198	7.21	36.55
27	34754	7.31	36.55
27	35310	7.41	36.55
27	35866	7.51	36.55
27	36422	7.61	36.55
27	36978	7.71	36.55
27	37534	7.81	36.55
27	38090	7.91	36.55
27	38654	8.01	36.55
27	39210	8.11	36.55
27	39766	8.21	36.55
27	40322	8.31	36.55
27	40878	8.41	36.55
27	41434	8.51	36.55
27	41990	8.61	36.55
27	42546	8.71	36.55
27	43102	8.81	36.55
27	43658	8.91	36.55
27	44222	9.01	36.55
27	44778	9.11	36.55
27	45334	9.21	36.55
27	45890	9.31	36.55
27	46446	9.41	36.55
26	233	1.11	122.21764297429
26	789	1.21	124.99542083316
26	1345	1.31	127.77319868639
26	1901	1.41	130.55097653212
26	2457	1.51	133.32875436907
26	3013	1.61	136.10653219645
26	3569	1.71	138.88431001395
26	4125	1.81	141.6620878216
26	4681	1.91	144.43986561974
26	5245	2.01	147.21764340892
26	5801	2.11	149.99542118982
26	6357	2.21	152.77319896325
26	6913	2.31	155.55097673003
26	7469	2.41	158.328754491
26	8025	2.51	161.10653224695
26	8581	2.61	163.88430999862
26	9137	2.71	166.6620877467
26	9693	2.81	169.43986549176
26	10249	2.91	172.21764323434
26	10813	3.01	174.99542097486
26	11369	3.11	177.77319871369
26	11925	3.21	180.55097645115
26	12481	3.31	183.32875418747
26	13037	3.41	186.10653192289
26	13593	3.51	188.88430965756
26	14149	3.61	191.66208739166
26	14705	3.71	194.4398651253
26	15261	3.81	197.21764285863
26	15817	3.91	199.99542059175
26	16381	4.01	202.77319832478
26	16937	4.11	205.55097605783
26	17493	4.21	208.328753791
26	18049	4.31	211.10653152439
26	18605	4.41	213.88430925811
26	19161	4.51	216.66208699223
26	19717	4.61	219.43986472684
26	20273	4.71	222.21764246202
26	20829	4.81	224.99542019781
26	21385	4.91	227.77319793427
26	21950	5.01	230.55097567144
26	22506	5.11	233.32872721204
26	23062	5.21	236.1060689357
26	23618	5.31	238.88163110854
26	24174	5.41	241.65264217413
26	24730	5.51	244.41478787816
26	25286	5.61	247.16228538555
26	25842	5.71	249.88811342598
26	26398	5.81	252.58434342768
26	26954	5.91	255.24252258193
26	27518	6.01	257.85406721141
26	28074	6.11	260.41063308558
26	28630	6.21	262.90443786422
26	29186	6.31	265.3285191545
26	29742	6.41	267.67691932681
26	30298	6.51	269.94479493782
26	30854	6.61	272.12845415063
26	31410	6.71	274.22532981272
26	31966	6.81	276.23389883564
26	32522	6.91	278.15356027568
26	33086	7.01	279.98448516052
26	33642	7.11	281.72745080703
26	34198	7.21	283.38367131879
26	34754	7.31	284.95463434036
26	35310	7.41	286.44195217591
26	35866	7.51	287.84723323807
26	36422	7.61	289.1719776411
26	36978	7.71	290.417498724
26	37534	7.81	291.5848704888
26	38090	7.91	292.67489943726
26	38654	8.01	293.68811812646
26	39210	8.11	294.62479695438
26	39766	8.21	295.48497021846
26	40322	8.31	296.2684723351
26	40878	8.41	296.97498022203
26	41434	8.51	297.60405817637
26	41990	8.61	298.15520207254
26	42546	8.71	298.62788029964
26	43102	8.81	299.02156950402
26	43658	8.91	299.33578385286
26	44222	9.01	299.57010843638
26	44778	9.11	299.72523430691
26	45334	9.21	299.80565393885
26	45890	9.31	299.82116868509
26	46446	9.41	299.82116868509
25	233	1.11	27.777778613161
25	789	1.21	27.777778572151
25	1345	1.31	27.77777850839
25	1901	1.41	27.77777842807
25	2457	1.51	27.777778336793
25	3013	1.61	27.777778239472
25	3569	1.71	27.777778140276
25	4125	1.81	27.777778042604
25	4681	1.91	27.7777779491
25	5245	2.01	27.7777778617
25	5801	2.11	27.777777781692
25	6357	2.21	27.7777777098
25	6913	2.31	27.777777646272
25	7469	2.41	27.777777590978
25	8025	2.51	27.7777775435
25	8581	2.61	27.77777750322
25	9137	2.71	27.7777774694
25	9693	2.81	27.777777441246
25	10249	2.91	27.777777417967
25	10813	3.01	27.777777398813
25	11369	3.11	27.777777383108
25	11925	3.21	27.777777370264
25	12481	3.31	27.777777359793
25	13037	3.41	27.777777351307
25	13593	3.51	27.777777344508
25	14149	3.61	27.777777339178
25	14705	3.71	27.777777335167
25	15261	3.81	27.777777332374
25	15817	3.91	27.777777330735
25	16381	4.01	27.777777330207
25	16937	4.11	27.777777330755
25	17493	4.21	27.777777332344
25	18049	4.31	27.777777334928
25	18605	4.41	27.77777733845
25	19161	4.51	27.777777342836
25	19717	4.61	27.777777347998
25	20273	4.71	27.777777353832
25	20829	4.81	27.777777360225
25	21385	4.91	27.777777367054
25	21950	5.01	27.777777374196
25	22506	5.11	27.777094105492
25	23062	5.21	27.769981099906
25	23618	5.31	27.744676995557
25	24174	5.41	27.68630933787
25	24730	5.51	27.579436781143
25	25286	5.61	27.409988945984
25	25842	5.71	27.166626905041
25	26398	5.81	26.841571600088
25	26954	5.91	26.430965980052
25	27518	6.01	25.934848976069
25	28074	6.11	25.356825741501
25	28630	6.21	24.703519393828
25	29186	6.31	23.983885580869
25	29742	6.41	23.208463505747
25	30298	6.51	22.388626613574
25	30854	6.61	21.53588400023
25	31410	6.71	20.66127071906
25	31966	6.81	19.774852391887
25	32522	6.91	18.885357587186
25	33086	7.01	17.99994085662
25	33642	7.11	17.124070496313
25	34198	7.21	16.26152823178
25	34754	7.31	15.414503175599
25	35310	7.41	14.583759506698
25	35866	7.51	13.768856198444
25	36422	7.61	12.968397533217
25	36978	7.71	12.180294789369
25	37534	7.81	11.402022055342
25	38090	7.91	10.630852298686
25	38654	8.01	9.8640632968316
25	39210	8.11	9.0991065573653
25	39766	8.21	8.3337356973025
25	40322	8.31	7.5660937414527
25	40878	8.41	6.7947613185668
25	41434	8.51	6.0187697088757
25	41990	8.61	5.2375841014497
25	42546	8.71	4.4510632670071
25	43102	8.81	3.6594021853482
25	43658	8.91	2.8630640538597
25	44222	9.01	2.063162855932
25	44778	9.11	1.2806147713955
25	45334	9.21	0.5575849082564
25	45890	9.31	0
25	46446	9.41	0
23	233	1.11	7.6897137546439e-09
23	789	1.21	3.0331055000943e-08
23	1345	1.31	6.423083931395e-08
23	1901	1.41	1.0579842424363e-07
23	2457	1.51	1.5172383527329e-07
23	3013	1.61	1.9909198911705e-07
23	3569	1.71	2.4545833809952e-07
23	4125	1.81	2.8888801040239e-07
23	4681	1.91	3.2796206639318e-07
23	5245	2.01	3.6175572404318e-07
23	5801	2.11	3.8979413474749e-07
23	6357	2.21	4.1199190548014e-07
23	6913	2.31	4.285826022965e-07
23	7469	2.41	4.4004355359561e-07
23	8025	2.51	4.4702115076234e-07
23	8581	2.61	4.5026068207221e-07
23	9137	2.71	4.5054361308416e-07
23	9693	2.81	4.4863500647807e-07
23	10249	2.91	4.4524196951556e-07
23	10813	3.01	4.4098319307295e-07
23	11369	3.11	4.3637001567731e-07
23	11925	3.21	4.3179759146028e-07
23	12481	3.31	4.2754474804951e-07
23	13037	3.41	4.2378116660302e-07
23	13593	3.51	4.2057978433263e-07
23	14149	3.61	4.1793320093575e-07
23	14705	3.71	4.1577166243201e-07
23	15261	3.81	4.1398188699304e-07
23	15817	3.91	4.1242496351401e-07
23	16381	4.01	4.1095244185385e-07
23	16937	4.11	4.0942012091705e-07
23	17493	4.21	4.0769885956138e-07
23	18049	4.31	4.0568252757112e-07
23	18605	4.41	4.0329284090035e-07
23	19161	4.51	4.0048148619576e-07
23	19717	4.61	3.9722976552525e-07
23	20273	4.71	3.935464221172e-07
23	20829	4.81	3.8946382829863e-07
23	21385	4.91	3.8503320709538e-07
23	21950	5.01	3.8031942395378e-07
23	22506	5.11	-0.0807095482966
23	23062	5.21	-0.2840886738538
23	23618	5.31	-0.57518279152464
23	24174	5.41	-0.92009323745529
23	24730	5.51	-1.287770547508
23	25286	5.61	-1.6513402488675
23	25842	5.71	-1.9889595979102
23	26398	5.81	-2.2842327485917
23	26954	5.91	-2.5262338825996
23	27518	6.01	-2.7092030798829
23	28074	6.11	-2.8319884160931
23	28630	6.21	-2.8973105480952
23	29186	6.31	-2.9109237467791
23	29742	6.41	-2.8807409711469
23	30298	6.51	-2.8159812314111
23	30854	6.61	-2.7263862364423
23	31410	6.71	-2.6215411666613
23	31966	6.81	-2.510322243098
23	32522	6.91	-2.4004823113123
23	33086	7.01	-2.298375490332
23	33642	7.11	-2.2088134427296
23	34198	7.21	-2.1350392258003
23	34754	7.31	-2.0788000565666
23	35310	7.41	-2.040497605689
23	35866	7.51	-2.0193934634902
23	36422	7.61	-2.0138479546797
23	36978	7.71	-2.0215722273463
23	37534	7.81	-2.039876193411
23	38090	7.91	-2.0658981384958
23	38654	8.01	-2.0968053539384
23	39210	8.11	-2.1299587102486
23	39766	8.21	-2.1630374704692
23	40322	8.31	-2.1941236632547
23	40878	8.41	-2.2217478792641
23	41434	8.51	-2.2449003500646
23	41990	8.61	-2.263012590525
23	42546	8.71	-2.2759157467898
23	43102	8.81	-2.283782136887
23	43658	8.91	-2.2870563676569
23	44222	9.01	-2.063162855932
23	44778	9.11	-1.2806147713955
23	45334	9.21	-0.5575849082564
23	45890	9.31	0
23	46446	9.41	0
22	233	1.11	10.333328247234
22	789	1.21	10.33332824873
22	1345	1.31	10.333328252912
22	1901	1.41	10.333328260769
22	2457	1.51	10.333328272939
22	3013	1.61	10.333328289742
22	3569	1.71	10.333328311226
22	4125	1.81	10.333328337215
22	4681	1.91	10.333328367358
22	5245	2.01	10.333328401185
22	5801	2.11	10.333328438151
22	6357	2.21	10.33332847768
22	6913	2.31	10.333328519201
22	7469	2.41	10.333328562177
22	8025	2.51	10.333328606124
22	8581	2.61	10.333328650629
22	9137	2.71	10.333328695354
22	9693	2.81	10.333328740037
22	10249	2.91	10.33332878449
22	10813	3.01	10.333328828594
22	11369	3.11	10.333328872282
22	11925	3.21	10.333328915538
22	12481	3.31	10.333328958375
22	13037	3.41	10.333329000833
22	13593	3.51	10.333329042963
22	14149	3.61	10.333329084818
22	14705	3.71	10.333329126448
22	15261	3.81	10.333329167897
22	15817	3.91	10.333329209191
22	16381	4.01	10.333329250348
22	16937	4.11	10.333329291365
22	17493	4.21	10.33332933223
22	18049	4.31	10.333329372918
22	18605	4.41	10.333329413393
22	19161	4.51	10.333329453615
22	19717	4.61	10.33332949354
22	20273	4.71	10.333329533122
22	20829	4.81	10.333329572319
22	21385	4.91	10.333329611093
22	21950	5.01	10.33332964941
22	22506	5.11	10.330038818763
22	23062	5.21	10.311578677227
22	23618	5.31	10.267487309981
22	24174	5.41	10.190725719708
22	24730	5.51	10.077495274598
22	25286	5.61	9.926895355425
22	25842	5.71	9.7404685458403
22	26398	5.81	9.5216794425249
22	26954	5.91	9.2753693295572
22	27518	6.01	9.007223237296
22	28074	6.11	8.7232789604853
22	28630	6.21	8.4295000714028
22	29186	6.31	8.1314273873463
22	29742	6.41	7.8339161999396
22	30298	6.51	7.5409602039739
22	30854	6.61	7.2555977247475
22	31410	6.71	6.9798916793948
22	31966	6.81	6.7149717684034
22	32522	6.91	6.4611256453958
22	33086	7.01	6.2179251573974
22	33642	7.11	5.9843740367029
22	34198	7.21	5.7590644801213
22	34754	7.31	5.5403316775583
22	35310	7.41	5.3263973543109
22	35866	7.51	5.1154955856769
22	36422	7.61	4.9059763642147
22	36978	7.71	4.6963845113663
22	37534	7.81	4.4855134185927
22	38090	7.91	4.272434702539
22	38654	8.01	4.0565061186186
22	39210	8.11	3.8373609804609
22	39766	8.21	3.6148828859838
22	40322	8.31	3.3891697812093
22	40878	8.41	3.1604913419345
22	41434	8.51	2.9292433723146
22	41990	8.61	2.6959024646032
22	42546	8.71	2.4609835928331
22	43102	8.81	2.2250026793627
22	43658	8.91	1.9884455256916
22	44222	9.01	1.7560528024292
22	44778	9.11	1.5852759702041
22	45334	9.21	1.4903957409987
22	45890	9.31	1.4637292965944
22	46446	9.41	1.4637292965944
24	233	1.11	1
24	789	1.21	1
24	1345	1.31	1
24	1901	1.41	1
24	2457	1.51	1
24	3013	1.61	1
24	3569	1.71	1
24	4125	1.81	1
24	4681	1.91	1
24	5245	2.01	1
24	5801	2.11	1
24	6357	2.21	1
24	6913	2.31	1
24	7469	2.41	1
24	8025	2.51	1
24	8581	2.61	1
24	9137	2.71	1
24	9693	2.81	1
24	10249	2.91	1
24	10813	3.01	1
24	11369	3.11	1
24	11925	3.21	1
24	12481	3.31	1
24	13037	3.41	1
24	13593	3.51	1
24	14149	3.61	1
24	14705	3.71	1
24	15261	3.81	1
24	15817	3.91	1
24	16381	4.01	1
24	16937	4.11	1
24	17493	4.21	1
24	18049	4.31	1
24	18605	4.41	1
24	19161	4.51	1
24	19717	4.61	1
24	20273	4.71	1
24	20829	4.81	1
24	21385	4.91	1
24	21950	5.01	1
24	22506	5.11	1
24	23062	5.21	1
24	23618	5.31	1
24	24174	5.41	1
24	24730	5.51	1
24	25286	5.61	1
24	25842	5.71	1
24	26398	5.81	1
24	26954	5.91	1
24	27518	6.01	1
24	28074	6.11	1
24	28630	6.21	1
24	29186	6.31	1
24	29742	6.41	1
24	30298	6.51	1
24	30854	6.61	1
24	31410	6.71	1
24	31966	6.81	1
24	32522	6.91	1
24	33086	7.01	1
24	33642	7.11	1
24	34198	7.21	1
24	34754	7.31	1
24	35310	7.41	1
24	35866	7.51	1
24	36422	7.61	1
24	36978	7.71	1
24	37534	7.81	1
24	38090	7.91	1
24	38654	8.01	1
24	39210	8.11	1
24	39766	8.21	1
24	40322	8.31	1
24	40878	8.41	1
24	41434	8.51	1
24	41990	8.61	1
24	42546	8.71	1
24	43102	8.81	1
24	43658	8.91	1
24	44222	9.01	1
24	44778	9.11	1
24	45334	9.21	1
24	45890	9.31	1
24	46446	9.41	1
36	1032	1.254911960246	0.100012338705
36	1588	1.354885298951	0.099973338705
36	2144	1.454871637656	0.099986338705
36	2700	1.554883976361	0.100012338705
36	3256	1.654870315066	0.099986338705
36	3812	1.754856653771	0.099986338705
36	4368	1.854920992476	0.100064338705
36	4924	1.954881331181	0.099960338705
36	5488	2.054919669886	0.100038338705
36	6044	2.154828008591	0.099908338705
36	6600	2.254892347296	0.100064338705
36	7156	2.354917686001	0.100025338705
36	7712	2.454865024706	0.099947338705
36	8268	2.554838363411	0.099973338705
36	8824	2.654902702116	0.100064338705
36	9380	2.754889040821	0.099986338705
36	9936	2.854927379526	0.100038338705
36	10492	2.954874718231	0.099947338705
36	11056	3.054861056936	0.099986338705
36	11612	3.154899395641	0.100038338705
36	12168	3.254859734346	0.099960338705
36	12724	3.354859073051	0.099999338705
36	13280	3.454923411756	0.100064338705
36	13836	3.554870750461	0.099947338705
36	14392	3.654844089166	0.099973338705
36	14948	3.754830427871	0.099986338705
36	15504	3.854829766576	0.099999338705
36	16060	3.954881105281	0.100051338705
36	16624	4.054854443986	0.099973338705
36	17180	4.154853782691	0.099999338705
36	17736	4.254918121396	0.100064338705
36	18292	4.354904460101	0.099986338705
36	18848	4.454851798806	0.099947338705
36	19404	4.554890137511	0.100038338705
36	19960	4.654863476216	0.099973338705
36	20516	4.754888814921	0.100025338705
36	21072	4.854927153626	0.100038338705
36	21628	4.954848492331	0.099921338705
36	22193	5.05483483103	0.099986338699
36	22749	5.154899169655	0.100064338625
36	23305	5.254872508055	0.0999733384
36	23861	5.354858846003	0.099986337948
36	24417	5.454884183203	0.1000253372
36	24973	5.554896519286	0.100012336083
36	25529	5.654856853813	0.099960334527
36	26085	5.754869186271	0.100012332458
36	26641	5.854868516068	0.099999329797
36	27197	5.954841842535	0.099973326467
36	27761	6.054841164921	0.099999322386
36	28317	6.154892482397	0.100051317476
36	28873	6.254917794056	0.100025311659
36	29429	6.35487809892	0.099960304864
36	29985	6.454838395929	0.099960297009
36	30541	6.554915683957	0.100077288028
36	31097	6.654914961803	0.099999277846
36	31653	6.754849228199	0.099934266396
36	32209	6.854900481815	0.100051253616
36	32765	6.954886721257	0.099986239442
36	33329	7.054846945077	0.09996022382
36	33885	7.154898151787	0.10005120671
36	34441	7.254897339871	0.099999188084
36	34997	7.354857507794	0.099960167923
36	35553	7.454895654062	0.100038146268
36	36109	7.554920777246	0.100025123184
36	36665	7.654893876014	0.099973098768
36	37221	7.754892949138	0.099999073124
36	37777	7.854917995508	0.10002504637
36	38333	7.954878014146	0.099960018638
36	38897	8.054838004213	0.099959990067
36	39453	8.154862965023	0.10002496081
36	40009	8.25486189602	0.099998930997
36	40565	8.354873796755	0.100011900735
36	41121	8.454885666887	0.100011870132
36	41677	8.554910506185	0.100024839298
36	42233	8.654831314504	0.099920808319
36	42789	8.754856091763	0.100024777259
36	43345	8.854828837945	0.099972746182
36	43901	8.954892553093	0.100063715148
36	44465	9.054917237538	0.100024684445
36	45021	9.154915891945	0.099998654407
36	45577	9.254836516996	0.099920625051
36	46133	9.354835113398	0.099998596402
35	1032	1.254911960246	0.100012338705
35	1588	1.354885298951	0.099973338705
35	2144	1.454871637656	0.099986338705
35	2700	1.554883976361	0.100012338705
35	3256	1.654870315066	0.099986338705
35	3812	1.754856653771	0.099986338705
35	4368	1.854920992476	0.100064338705
35	4924	1.954881331181	0.099960338705
35	5488	2.054919669886	0.100038338705
35	6044	2.154828008591	0.099908338705
35	6600	2.254892347296	0.100064338705
35	7156	2.354917686001	0.100025338705
35	7712	2.454865024706	0.099947338705
35	8268	2.554838363411	0.099973338705
35	8824	2.654902702116	0.100064338705
35	9380	2.754889040821	0.099986338705
35	9936	2.854927379526	0.100038338705
35	10492	2.954874718231	0.099947338705
35	11056	3.054861056936	0.099986338705
35	11612	3.154899395641	0.100038338705
35	12168	3.254859734346	0.099960338705
35	12724	3.354859073051	0.099999338705
35	13280	3.454923411756	0.100064338705
35	13836	3.554870750461	0.099947338705
35	14392	3.654844089166	0.099973338705
35	14948	3.754830427871	0.099986338705
35	15504	3.854829766576	0.099999338705
35	16060	3.954881105281	0.100051338705
35	16624	4.054854443986	0.099973338705
35	17180	4.154853782691	0.099999338705
35	17736	4.254918121396	0.100064338705
35	18292	4.354904460101	0.099986338705
35	18848	4.454851798806	0.099947338705
35	19404	4.554890137511	0.100038338705
35	19960	4.654863476216	0.099973338705
35	20516	4.754888814921	0.100025338705
35	21072	4.854927153626	0.100038338705
35	21628	4.954848492331	0.099921338705
35	22193	5.05483483103	0.099986338699
35	22749	5.154899169655	0.100064338625
35	23305	5.254872508055	0.0999733384
35	23861	5.354858846003	0.099986337948
35	24417	5.454884183203	0.1000253372
35	24973	5.554896519286	0.100012336083
35	25529	5.654856853813	0.099960334527
35	26085	5.754869186271	0.100012332458
35	26641	5.854868516068	0.099999329797
35	27197	5.954841842535	0.099973326467
35	27761	6.054841164921	0.099999322386
35	28317	6.154892482397	0.100051317476
35	28873	6.254917794056	0.100025311659
35	29429	6.35487809892	0.099960304864
35	29985	6.454838395929	0.099960297009
35	30541	6.554915683957	0.100077288028
35	31097	6.654914961803	0.099999277846
35	31653	6.754849228199	0.099934266396
35	32209	6.854900481815	0.100051253616
35	32765	6.954886721257	0.099986239442
35	33329	7.054846945077	0.09996022382
35	33885	7.154898151787	0.10005120671
35	34441	7.254897339871	0.099999188084
35	34997	7.354857507794	0.099960167923
35	35553	7.454895654062	0.100038146268
35	36109	7.554920777246	0.100025123184
35	36665	7.654893876014	0.099973098768
35	37221	7.754892949138	0.099999073124
35	37777	7.854917995508	0.10002504637
35	38333	7.954878014146	0.099960018638
35	38897	8.054838004213	0.099959990067
35	39453	8.154862965023	0.10002496081
35	40009	8.25486189602	0.099998930997
35	40565	8.354873796755	0.100011900735
35	41121	8.454885666887	0.100011870132
35	41677	8.554910506185	0.100024839298
35	42233	8.654831314504	0.099920808319
35	42789	8.754856091763	0.100024777259
35	43345	8.854828837945	0.099972746182
35	43901	8.954892553093	0.100063715148
35	44465	9.054917237538	0.100024684445
35	45021	9.154915891945	0.099998654407
35	45577	9.254836516996	0.099920625051
35	46133	9.354835113398	0.099998596402
34	1032	1.254911960246	1
34	1588	1.354885298951	1
34	2144	1.454871637656	1
34	2700	1.554883976361	1
34	3256	1.654870315066	1
34	3812	1.754856653771	1
34	4368	1.854920992476	1
34	4924	1.954881331181	1
34	5488	2.054919669886	1
34	6044	2.154828008591	1
34	6600	2.254892347296	1
34	7156	2.354917686001	1
34	7712	2.454865024706	1
34	8268	2.554838363411	1
34	8824	2.654902702116	1
34	9380	2.754889040821	1
34	9936	2.854927379526	1
34	10492	2.954874718231	1
34	11056	3.054861056936	1
34	11612	3.154899395641	1
34	12168	3.254859734346	1
34	12724	3.354859073051	1
34	13280	3.454923411756	1
34	13836	3.554870750461	1
34	14392	3.654844089166	1
34	14948	3.754830427871	1
34	15504	3.854829766576	1
34	16060	3.954881105281	1
34	16624	4.054854443986	1
34	17180	4.154853782691	1
34	17736	4.254918121396	1
34	18292	4.354904460101	1
34	18848	4.454851798806	1
34	19404	4.554890137511	1
34	19960	4.654863476216	1
34	20516	4.754888814921	1
34	21072	4.854927153626	1
34	21628	4.954848492331	1
34	22193	5.05483483103	1
34	22749	5.154899169655	1
34	23305	5.254872508055	1
34	23861	5.354858846003	1
34	24417	5.454884183203	1
34	24973	5.554896519286	1
34	25529	5.654856853813	1
34	26085	5.754869186271	1
34	26641	5.854868516068	1
34	27197	5.954841842535	1
34	27761	6.054841164921	1
34	28317	6.154892482397	1
34	28873	6.254917794056	1
34	29429	6.35487809892	1
34	29985	6.454838395929	1
34	30541	6.554915683957	1
34	31097	6.654914961803	1
34	31653	6.754849228199	1
34	32209	6.854900481815	1
34	32765	6.954886721257	1
34	33329	7.054846945077	1
34	33885	7.154898151787	1
34	34441	7.254897339871	1
34	34997	7.354857507794	1
34	35553	7.454895654062	1
34	36109	7.554920777246	1
34	36665	7.654893876014	1
34	37221	7.754892949138	1
34	37777	7.854917995508	1
34	38333	7.954878014146	1
34	38897	8.054838004213	1
34	39453	8.154862965023	1
34	40009	8.25486189602	1
34	40565	8.354873796755	1
34	41121	8.454885666887	1
34	41677	8.554910506185	1
34	42233	8.654831314504	1
34	42789	8.754856091763	1
34	43345	8.854828837945	1
34	43901	8.954892553093	1
34	44465	9.054917237538	1
34	45021	9.154915891945	1
34	45577	9.254836516996	1
34	46133	9.354835113398	1
33	1032	1.254911960246	1
33	1588	1.354885298951	1
33	2144	1.454871637656	1
33	2700	1.554883976361	1
33	3256	1.654870315066	1
33	3812	1.754856653771	1
33	4368	1.854920992476	1
33	4924	1.954881331181	1
33	5488	2.054919669886	1
33	6044	2.154828008591	1
33	6600	2.254892347296	1
33	7156	2.354917686001	1
33	7712	2.454865024706	1
33	8268	2.554838363411	1
33	8824	2.654902702116	1
33	9380	2.754889040821	1
33	9936	2.854927379526	1
33	10492	2.954874718231	1
33	11056	3.054861056936	1
33	11612	3.154899395641	1
33	12168	3.254859734346	1
33	12724	3.354859073051	1
33	13280	3.454923411756	1
33	13836	3.554870750461	1
33	14392	3.654844089166	1
33	14948	3.754830427871	1
33	15504	3.854829766576	1
33	16060	3.954881105281	1
33	16624	4.054854443986	1
33	17180	4.154853782691	1
33	17736	4.254918121396	1
33	18292	4.354904460101	1
33	18848	4.454851798806	1
33	19404	4.554890137511	1
33	19960	4.654863476216	1
33	20516	4.754888814921	1
33	21072	4.854927153626	1
33	21628	4.954848492331	1
33	22193	5.05483483103	1
33	22749	5.154899169655	1
33	23305	5.254872508055	1
33	23861	5.354858846003	1
33	24417	5.454884183203	1
33	24973	5.554896519286	1
33	25529	5.654856853813	1
33	26085	5.754869186271	1
33	26641	5.854868516068	1
33	27197	5.954841842535	1
33	27761	6.054841164921	1
33	28317	6.154892482397	1
33	28873	6.254917794056	1
33	29429	6.35487809892	1
33	29985	6.454838395929	1
33	30541	6.554915683957	1
33	31097	6.654914961803	1
33	31653	6.754849228199	1
33	32209	6.854900481815	1
33	32765	6.954886721257	1
33	33329	7.054846945077	1
33	33885	7.154898151787	1
33	34441	7.254897339871	1
33	34997	7.354857507794	1
33	35553	7.454895654062	1
33	36109	7.554920777246	1
33	36665	7.654893876014	1
33	37221	7.754892949138	1
33	37777	7.854917995508	1
33	38333	7.954878014146	1
33	38897	8.054838004213	1
33	39453	8.154862965023	1
33	40009	8.25486189602	1
33	40565	8.354873796755	1
33	41121	8.454885666887	1
33	41677	8.554910506185	1
33	42233	8.654831314504	1
33	42789	8.754856091763	1
33	43345	8.854828837945	1
33	43901	8.954892553093	1
33	44465	9.054917237538	1
33	45021	9.154915891945	1
33	45577	9.254836516996	1
33	46133	9.354835113398	1
32	5103	2	0
32	10671	3	0
32	16239	4	0
32	21808	5	0
32	27376	6	0
32	32944	7	0
32	38512	8	0
32	44080	9	0
31	5103	2	0.022969
31	10671	3	0.02625
31	16239	4	0.02625
31	21808	5	0.02625
31	27376	6	0.02625
31	32944	7	0.02625
31	38512	8	0.02625
31	44080	9	0.02625
30	5103	2	1
30	10671	3	1
30	16239	4	1
30	21808	5	1
30	27376	6	1
30	32944	7	1
30	38512	8	1
30	44080	9	1
51	234	1.11	7.161809125004e-07
51	790	1.21	5.3366377035976e-07
51	1346	1.31	2.481917806089e-07
51	1902	1.41	-9.8660107047029e-08
51	2458	1.51	-4.6694472525625e-07
51	3014	1.61	-8.211515023504e-07
51	3570	1.71	-1.1321914653214e-06
51	4126	1.81	-1.3785665421058e-06
51	4682	1.91	-1.5467816218973e-06
51	5246	2.01	-1.6311016306503e-06
51	5802	2.11	-1.6327842769689e-06
51	6358	2.21	-1.558931152464e-06
51	6914	2.31	-1.4211037751011e-06
51	7470	2.41	-1.2338411868503e-06
51	8026	2.51	-1.0131998913939e-06
51	8582	2.61	-7.7541483515612e-07
51	9138	2.71	-5.3575452045133e-07
51	9694	2.81	-3.0762085501124e-07
51	10250	2.91	-1.0191440402707e-07
51	10814	3.01	7.3332612278894e-08
51	11370	3.11	2.1307245627137e-07
51	11926	3.21	3.151385445932e-07
51	12482	3.31	3.7996558373739e-07
51	13038	3.41	4.1017759618474e-07
51	13594	3.51	4.1009485585164e-07
51	14150	3.61	3.8520239561043e-07
51	14706	3.71	3.4162424888962e-07
51	15262	3.81	2.8563608189813e-07
51	15818	3.91	2.2324246806704e-07
51	16382	4.01	1.5983774304118e-07
51	16938	4.11	9.9958268625263e-08
51	17494	4.21	4.7128975685003e-08
51	18050	4.31	3.7998688640074e-09
51	18606	4.41	-2.863809397032e-08
51	19162	4.51	-4.9770873644661e-08
51	19718	4.61	-6.0028951883358e-08
51	20274	4.71	-6.0521702612467e-08
51	20830	4.81	-5.285268992831e-08
51	21386	4.91	-3.8932626604075e-08
51	21951	5.01	-2.0802321643032e-08
51	22507	5.11	-0.001589959723777
51	23063	5.21	-0.021547881151647
51	23619	5.31	-0.096447219137171
51	24175	5.41	-0.27138818865094
51	24731	5.51	-0.58919215653355
51	25287	5.61	-1.0820363654185
51	25843	5.71	-1.7659060635934
51	26399	5.81	-2.6379124645601
51	26955	5.91	-3.6762541373529
51	27519	6.01	-4.8423974310207
51	28075	6.11	-6.0849220194655
51	28631	6.21	-7.3444179818655
51	29187	6.31	-8.558823425886
51	29743	6.41	-9.6686454456423
51	30299	6.51	-10.621599083482
51	30855	6.61	-11.376315150051
51	31411	6.71	-11.904894942137
51	31967	6.81	-12.19421616977
51	32523	6.91	-12.252525279421
51	33087	7.01	-12.234051368257
51	33643	7.11	-12.184706732227
51	34199	7.21	-12.090953363383
51	34755	7.31	-11.944503721251
51	35311	7.41	-11.741833888466
51	35867	7.51	-11.483509560968
51	36423	7.61	-11.17339467361
51	36979	7.71	-10.817808020714
51	37535	7.81	-10.424685544238
51	38091	7.91	-10.002796062821
51	38655	8.01	-9.5610470888169
51	39211	8.11	-9.1079059156626
51	39767	8.21	-8.6531605154007
51	40323	8.31	-8.2224631360489
51	40879	8.41	-7.8436162529957
51	41435	8.51	-7.535975870374
51	41991	8.61	-7.3104609540517
51	42547	8.71	-7.1702108581961
51	43103	8.81	-7.1116785089287
51	43659	8.91	-7.1260081740712
51	44223	9.01	-7.1999637812653
51	44779	9.11	-7.2630302037329
51	45335	9.21	-7.1652102958468
51	45891	9.31	-6.7436271804524
51	46447	9.41	-4.2862156308156
50	234	1.11	1.0892939883433e-07
50	790	1.21	2.0126229571815e-07
50	1346	1.31	2.3313724284435e-07
50	1902	1.41	2.0114860888043e-07
50	2458	1.51	1.0985452547629e-07
50	3014	1.61	-3.0246027904468e-08
50	3570	1.71	-2.0479227202941e-07
50	4126	1.81	-3.9753693670264e-07
50	4682	1.91	-5.9210414349309e-07
50	5246	2.01	-7.7343109694539e-07
50	5802	2.11	-9.2885805713649e-07
50	6358	2.21	-1.0488381718687e-06
50	6914	2.31	-1.127292037495e-06
50	7470	2.41	-1.1616325679142e-06
50	8026	2.51	-1.1525251863986e-06
50	8582	2.61	-1.1034373414986e-06
50	9138	2.71	-1.0200473354871e-06
50	9694	2.81	-9.095757036448e-07
50	10250	2.91	-7.8010842230469e-07
50	10814	3.01	-6.3994782806276e-07
50	11370	3.11	-4.9704418358942e-07
50	11926	3.21	-3.5853062740898e-07
50	12482	3.31	-2.3037749485866e-07
50	13038	3.41	-1.1717524728283e-07
50	13594	3.51	-2.2037838220967e-08
50	14150	3.61	5.3382720466288e-08
50	14706	3.71	1.0878835610129e-07
50	15262	3.81	1.4505836531953e-07
50	15818	3.91	1.6401742186645e-07
50	16382	4.01	1.6818511028305e-07
50	16938	4.11	1.6051231455094e-07
50	17494	4.21	1.4413465976304e-07
50	18050	4.31	1.2214691480494e-07
50	18606	4.41	9.742038287186e-08
50	19162	4.51	7.2458306021872e-08
50	19718	4.61	4.9303139348922e-08
50	20274	4.71	2.9478641749847e-08
50	20830	4.81	1.3983481039759e-08
50	21386	4.91	3.3153924050566e-09
50	21951	5.01	-2.4769519768597e-09
50	22507	5.11	-7.9826345000811e-05
50	23063	5.21	-0.0018814481855145
50	23619	5.31	-0.01190354943823
50	24175	5.41	-0.043088657892199
50	24731	5.51	-0.11406658362745
50	25287	5.61	-0.246832674339
50	25843	5.71	-0.46362401707043
50	26399	5.81	-0.78365318818392
50	26955	5.91	-1.2202208502835
50	27519	6.01	-1.7785732818531
50	28075	6.11	-2.4547146778598
50	28631	6.21	-3.2352397994597
50	29187	6.31	-4.0981299631067
50	29743	6.41	-5.0143606498391
50	30299	6.51	-5.9501050594001
50	30855	6.61	-6.8692846480779
50	31411	6.71	-7.7362125621985
50	31967	6.81	-8.5180945904519
50	32523	6.91	-9
50	33087	7.01	-9
50	33643	7.11	-9
50	34199	7.21	-9
50	34755	7.31	-9
50	35311	7.41	-9
50	35867	7.51	-9
50	36423	7.61	-9
50	36979	7.71	-9
50	37535	7.81	-9
50	38091	7.91	-9
50	38655	8.01	-9
50	39211	8.11	-9
50	39767	8.21	-8.9717037109303
50	40323	8.31	-8.8700772551087
50	40879	8.41	-8.7142614255615
50	41435	8.51	-8.525401806935
50	41991	8.61	-8.3234583086275
50	42547	8.71	-8.1259618456002
50	43103	8.81	-7.9471590416938
50	43659	8.91	-7.7975381312317
50	44223	9.01	-7.6836895830626
50	44779	9.11	-7.6045022642272
50	45335	9.21	-7.5365436363344
50	45891	9.31	-7.435578203722
50	46447	9.41	-7.0598001572794
49	234	1.11	36.55
49	790	1.21	36.55
49	1346	1.31	36.55
49	1902	1.41	36.55
49	2458	1.51	36.55
49	3014	1.61	36.55
49	3570	1.71	36.55
49	4126	1.81	36.55
49	4682	1.91	36.55
49	5246	2.01	36.55
49	5802	2.11	36.55
49	6358	2.21	36.55
49	6914	2.31	36.55
49	7470	2.41	36.55
49	8026	2.51	36.55
49	8582	2.61	36.55
49	9138	2.71	36.55
49	9694	2.81	36.55
49	10250	2.91	36.55
49	10814	3.01	36.55
49	11370	3.11	36.55
49	11926	3.21	36.55
49	12482	3.31	36.55
49	13038	3.41	36.55
49	13594	3.51	36.55
49	14150	3.61	36.55
49	14706	3.71	36.55
49	15262	3.81	36.55
49	15818	3.91	36.55
49	16382	4.01	36.55
49	16938	4.11	36.55
49	17494	4.21	36.55
49	18050	4.31	36.55
49	18606	4.41	36.55
49	19162	4.51	36.55
49	19718	4.61	36.55
49	20274	4.71	36.55
49	20830	4.81	36.55
49	21386	4.91	36.55
49	21951	5.01	36.55
49	22507	5.11	36.55
49	23063	5.21	36.55
49	23619	5.31	36.55
49	24175	5.41	36.55
49	24731	5.51	36.55
49	25287	5.61	36.55
49	25843	5.71	36.55
49	26399	5.81	36.55
49	26955	5.91	36.55
49	27519	6.01	36.55
49	28075	6.11	36.55
49	28631	6.21	36.55
49	29187	6.31	36.55
49	29743	6.41	36.55
49	30299	6.51	36.55
49	30855	6.61	36.55
49	31411	6.71	36.55
49	31967	6.81	36.55
49	32523	6.91	36.55
49	33087	7.01	36.55
49	33643	7.11	36.55
49	34199	7.21	36.55
49	34755	7.31	36.55
49	35311	7.41	36.55
49	35867	7.51	36.55
49	36423	7.61	36.55
49	36979	7.71	36.55
49	37535	7.81	36.55
49	38091	7.91	36.55
49	38655	8.01	36.55
49	39211	8.11	36.55
49	39767	8.21	36.55
49	40323	8.31	36.55
49	40879	8.41	36.55
49	41435	8.51	36.55
49	41991	8.61	36.55
49	42547	8.71	36.55
49	43103	8.81	36.55
49	43659	8.91	36.55
49	44223	9.01	36.55
49	44779	9.11	36.55
49	45335	9.21	36.55
49	45891	9.31	36.55
49	46447	9.41	36.55
48	234	1.11	107.88430709863
48	790	1.21	110.66208496269
48	1346	1.31	113.43986282884
48	1902	1.41	116.21764069726
48	2458	1.51	118.99541856751
48	3014	1.61	121.77319643858
48	3570	1.71	124.55097430899
48	4126	1.81	127.32875217698
48	4682	1.91	130.10653004059
48	5246	2.01	132.88430789792
48	5802	2.11	135.6620857472
48	6358	2.21	138.43986358695
48	6914	2.31	141.21764141605
48	7470	2.41	143.99541923381
48	8026	2.51	146.77319703996
48	8582	2.61	149.55097483468
48	9138	2.71	152.32875261854
48	9694	2.81	155.10653039241
48	10250	2.91	157.88430815745
48	10814	3.01	160.66208591497
48	11370	3.11	163.43986366637
48	11926	3.21	166.21764141309
48	12482	3.31	168.99541915647
48	13038	3.41	171.77319689778
48	13594	3.51	174.55097463811
48	14150	3.61	177.32875237838
48	14706	3.71	180.10653011929
48	15262	3.81	182.88430786136
48	15818	3.91	185.66208560491
48	16382	4.01	188.43986335012
48	16938	4.11	191.217641097
48	17494	4.21	193.99541884545
48	18050	4.31	196.77319659529
48	18606	4.41	199.55097434631
48	19162	4.51	202.32875209825
48	19718	4.61	205.10652985087
48	20274	4.71	207.88430760394
48	20830	4.81	210.66208535728
48	21386	4.91	213.43986311073
48	21951	5.01	216.2176408642
48	22507	5.11	218.99541855808
48	23063	5.21	221.77319277893
48	23619	5.31	224.55093063424
48	24175	5.41	227.32849157233
48	24731	5.51	230.10548623522
48	25287	5.61	232.88108309454
48	25843	5.71	235.65378773379
48	26399	5.81	238.4212263274
48	26955	5.91	241.17996523499
48	27519	6.01	243.92539409636
48	28075	6.11	246.65169193346
48	28631	6.21	249.35188607921
48	29187	6.31	252.01800365878
48	29743	6.41	254.64130601723
48	30299	6.51	257.21258880223
48	30855	6.61	259.72252495227
48	31411	6.71	262.16202488207
48	31967	6.81	264.52258770389
48	32523	6.91	266.79671979519
48	33087	7.01	268.98094348055
48	33643	7.11	271.07516716591
48	34199	7.21	273.07939085127
48	34755	7.31	274.99361453663
48	35311	7.41	276.81783822198
48	35867	7.51	278.55206190734
48	36423	7.61	280.1962855927
48	36979	7.71	281.75050927806
48	37535	7.81	283.21473296342
48	38091	7.91	284.58895664878
48	38655	8.01	285.87318033414
48	39211	8.11	287.06740401949
48	39767	8.21	288.17166191774
48	40323	8.31	289.18640383136
48	40879	8.41	290.11275606387
48	41435	8.51	290.95234430639
48	41991	8.61	291.70708445816
48	42547	8.71	292.37898785612
48	43103	8.81	292.9699925343
48	43659	8.91	293.48182829827
48	44223	9.01	293.91591965585
48	44779	9.11	294.27333222636
48	45335	9.21	294.55482981217
48	45891	9.31	294.76115135773
48	46447	9.41	294.89381918822
47	234	1.11	27.777778630707
47	790	1.21	27.777778647139
47	1346	1.31	27.777778669544
47	1902	1.41	27.777778691617
47	2458	1.51	27.777778707164
47	3014	1.61	27.777778710792
47	3570	1.71	27.777778698386
47	4126	1.81	27.777778667387
47	4682	1.91	27.777778616882
47	5246	2.01	27.777778547533
47	5802	2.11	27.777778461384
47	6358	2.21	27.777778361576
47	6914	2.31	27.777778252019
47	7470	2.41	27.777778137035
47	8026	2.51	27.777778021025
47	8582	2.61	27.777777908163
47	9138	2.71	27.77777780215
47	9694	2.81	27.777777706031
47	10250	2.91	27.777777622071
47	10814	3.01	27.777777551715
47	11370	3.11	27.777777495588
47	11926	3.21	27.777777453565
47	12482	3.31	27.777777424867
47	13038	3.41	27.777777408194
47	13594	3.51	27.777777401867
47	14150	3.61	27.777777403977
47	14706	3.71	27.777777412526
47	15262	3.81	27.777777425551
47	15818	3.91	27.777777441233
47	16382	4.01	27.777777457974
47	16938	4.11	27.777777474455
47	17494	4.21	27.777777489665
47	18050	4.31	27.777777502903
47	18606	4.41	27.777777513769
47	19162	4.51	27.777777522131
47	19718	4.61	27.777777528081
47	20274	4.71	27.777777531889
47	20830	4.81	27.777777533946
47	21386	4.91	27.777777534717
47	21951	5.01	27.777777534691
47	22507	5.11	27.777775650123
47	23063	5.21	27.777700189982
47	23619	5.31	27.777072237994
47	24175	5.41	27.774410927466
47	24731	5.51	27.766614427535
47	25287	5.61	27.748509268184
47	25843	5.71	27.712681888154
47	26399	5.81	27.649635307418
47	26955	5.91	27.548255261333
47	27519	6.01	27.396526470206
47	28075	6.11	27.182411753015
47	28631	6.21	26.894793788623
47	29187	6.31	26.524379721975
47	29743	6.41	26.06447996942
47	30299	6.51	25.511591524322
47	30855	6.61	24.865739708245
47	31411	6.71	24.13055770786
47	31967	6.81	23.313107792692
47	32523	6.91	22.427236853584
47	33087	7.01	21.527236853584
47	33643	7.11	20.627236853584
47	34199	7.21	19.727236853584
47	34755	7.31	18.827236853584
47	35311	7.41	17.927236853584
47	35867	7.51	17.027236853584
47	36423	7.61	16.127236853584
47	36979	7.71	15.227236853584
47	37535	7.81	14.327236853584
47	38091	7.91	13.427236853584
47	38655	8.01	12.527236853584
47	39211	8.11	11.627236853584
47	39767	8.21	10.728162099178
47	40323	8.31	9.8360466313096
47	40879	8.41	8.9572496252326
47	41435	8.51	8.0960233410876
47	41991	8.61	7.2545588727637
47	42547	8.71	6.4331762493919
47	43103	8.81	5.6306175924546
47	43659	8.91	4.8444046657494
47	44223	9.01	4.0712244586215
47	44779	9.11	3.3074396145218
47	45335	9.21	2.5506615869852
47	45891	9.31	1.8020461394683
47	46447	9.41	1.0757623514705
45	234	1.11	-1.4948458471054e-08
45	790	1.21	-6.9756588061409e-08
45	1346	1.31	-1.5393520413909e-07
45	1902	1.41	-2.5493513433616e-07
45	2458	1.51	-3.6089672761364e-07
45	3014	1.61	-4.6144031173867e-07
45	3570	1.71	-5.4820840489356e-07
45	4126	1.81	-6.1516606209011e-07
45	4682	1.91	-6.5867997278701e-07
45	5246	2.01	-6.7740917941705e-07
45	5802	2.11	-6.7204769393925e-07
45	6358	2.21	-6.4496228802113e-07
45	6914	2.31	-5.9976889943414e-07
45	7470	2.41	-5.4088776479944e-07
45	8026	2.51	-4.7311203843492e-07
45	8582	2.61	-4.0121792821424e-07
45	9138	2.71	-3.2963657403684e-07
45	9694	2.81	-2.6220114435205e-07
45	10250	2.91	-2.0197376571218e-07
45	10814	3.01	-1.5115186613457e-07
45	11370	3.11	-1.1104771147075e-07
45	11926	3.21	-8.2131034417898e-08
45	12482	3.31	-6.4121593368327e-08
45	13038	3.41	-5.6118043545439e-08
45	13594	3.51	-5.674807468381e-08
45	14150	3.61	-6.4327274174047e-08
45	14706	3.71	-7.7013876165211e-08
45	15262	3.81	-9.2950308783202e-08
45	15818	3.91	-1.1038406810826e-07
45	16382	4.01	-1.2776287050542e-07
45	16938	4.11	-1.4380232471467e-07
45	17494	4.21	-1.5752562276816e-07
45	18050	4.31	-1.6827695148436e-07
45	18606	4.41	-1.7571206711864e-07
45	19162	4.51	-1.7977011879111e-07
45	19718	4.61	-1.8063153461867e-07
45	20274	4.71	-1.7866710422254e-07
45	20830	4.81	-1.7438235744294e-07
45	21386	4.91	-1.683622024018e-07
45	21951	5.01	-1.6121920509704e-07
45	22507	5.11	-0.00047512468704269
45	23063	5.21	-0.0064170335866365
45	23619	5.31	-0.028634229956282
45	24175	5.41	-0.080331578954105
45	24731	5.51	-0.17388884790941
45	25287	5.61	-0.31841052478043
45	25843	5.71	-0.5181407142428
45	26399	5.81	-0.7717408897499
45	26955	5.91	-1.072350621865
45	27519	6.01	-1.4082947968903
45	28075	6.11	-1.7642659793022
45	28631	6.21	-2.1227963382572
45	29187	6.31	-2.4658374353403
45	29743	6.41	-2.7762846838028
45	30299	6.51	-3.039312440584
45	30855	6.61	-3.2434213531455
45	31411	6.71	-3.3811378290571
45	31967	6.81	-3.4493428668455
45	32523	6.91	-3.4530082847998
45	33087	7.01	-3.4391070648605
45	33643	7.11	-3.4161296108868
45	34199	7.21	-3.3801283674028
45	34755	7.31	-3.3287614584976
45	35311	7.41	-3.2611314110185
45	35867	7.51	-3.177569657066
45	36423	7.61	-3.0793881799564
45	36979	7.71	-2.9686181293287
45	37535	7.81	-2.8477527397986
45	38091	7.91	-2.7195087611968
45	38655	8.01	-2.586617147383
45	39211	8.11	-2.4516502231721
45	39767	8.21	-2.3178144262985
45	40323	8.31	-2.1930425023013
45	40879	8.41	-2.0851578868879
45	41435	8.51	-1.9994263165298
45	41991	8.61	-1.9386156104346
45	42547	8.71	-1.9032240332841
45	43103	8.81	-1.8918294145616
45	43659	8.91	-1.9015139061793
45	44223	9.01	-1.9281453991733
45	44779	9.11	-1.9506033571038
45	45335	9.21	-1.9244854077156
45	45891	9.31	-1.8020461394683
45	46447	9.41	-1.0757623514705
44	234	1.11	10.33333587602
44	790	1.21	10.333335871969
44	1346	1.31	10.333335860778
44	1902	1.41	10.333335840138
44	2458	1.51	10.333335808967
44	3014	1.61	10.333335767302
44	3570	1.71	10.333335716119
44	4126	1.81	10.333335657123
44	4682	1.91	10.333335592506
44	5246	2.01	10.33333552471
44	5802	2.11	10.333335456212
44	6358	2.21	10.333335389333
44	6914	2.31	10.333335326094
44	7470	2.41	10.333335268113
44	8026	2.51	10.333335216538
44	8582	2.61	10.333335172038
44	9138	2.71	10.333335134812
44	9694	2.81	10.333335104644
44	10250	2.91	10.333335080967
44	10814	3.01	10.333335062946
44	11370	3.11	10.333335049567
44	11926	3.21	10.333335039724
44	12482	3.31	10.333335032302
44	13038	3.41	10.33333502624
44	13594	3.51	10.333335020595
44	14150	3.61	10.333335014575
44	14706	3.71	10.333335007564
44	15262	3.81	10.333334999136
44	15818	3.91	10.333334989044
44	16382	4.01	10.333334977211
44	16938	4.11	10.333334963702
44	17494	4.21	10.333334948697
44	18050	4.31	10.333334932459
44	18606	4.41	10.333334915303
44	19162	4.51	10.333334897565
44	19718	4.61	10.333334879575
44	20274	4.71	10.333334861636
44	20830	4.81	10.333334844009
44	21386	4.91	10.333334826898
44	21951	5.01	10.333334810447
44	22507	5.11	10.33332228485
44	23063	5.21	10.333030538569
44	23619	5.31	10.331348379142
44	24175	5.41	10.325912633591
44	24731	5.51	10.313045195868
44	25287	5.61	10.287972697461
44	25843	5.71	10.245246791852
44	26399	5.81	10.179278374427
44	26955	5.91	10.084903132571
44	27519	6.01	9.9579066649336
44	28075	6.11	9.7954528723494
44	28631	6.21	9.5963772729065
44	29187	6.31	9.361325378537
44	29743	6.41	9.0927336388607
44	30299	6.51	8.7946654338101
44	30855	6.61	8.4725263125272
44	31411	6.71	8.1326906704245
44	31967	6.81	7.78207623977
44	32523	6.91	7.4276780658119
44	33087	7.01	7.07408759991
44	33643	7.11	6.7223469682633
44	34199	7.21	6.3735946399538
44	34755	7.31	6.0292744772976
44	35311	7.41	5.6909835008632
44	35867	7.51	5.3603389438321
44	36423	7.61	5.0388688348092
44	36979	7.71	4.7279282872217
44	37535	7.81	4.4286418213483
44	38091	7.91	4.141870479579
44	38655	8.01	3.868201263455
44	39211	8.11	3.6079555408081
44	39767	8.21	3.3611968287623
44	40323	8.31	3.1274675615349
44	40879	8.41	2.9054739242946
44	41435	8.51	2.693258942617
44	41991	8.61	2.4884571098091
44	42547	8.71	2.2885347031667
44	43103	8.81	2.0910012778612
44	43659	8.91	1.8935823668209
44	44223	9.01	1.6943500125795
44	44779	9.11	1.4924385774112
44	45335	9.21	1.2906856602535
44	45891	9.31	1.0960582501493
44	46447	9.41	0.94886474389909
46	234	1.11	2
46	790	1.21	2
46	1346	1.31	2
46	1902	1.41	2
46	2458	1.51	2
46	3014	1.61	2
46	3570	1.71	2
46	4126	1.81	2
46	4682	1.91	2
46	5246	2.01	2
46	5802	2.11	2
46	6358	2.21	2
46	6914	2.31	2
46	7470	2.41	2
46	8026	2.51	2
46	8582	2.61	2
46	9138	2.71	2
46	9694	2.81	2
46	10250	2.91	2
46	10814	3.01	2
46	11370	3.11	2
46	11926	3.21	2
46	12482	3.31	2
46	13038	3.41	2
46	13594	3.51	2
46	14150	3.61	2
46	14706	3.71	2
46	15262	3.81	2
46	15818	3.91	2
46	16382	4.01	2
46	16938	4.11	2
46	17494	4.21	2
46	18050	4.31	2
46	18606	4.41	2
46	19162	4.51	2
46	19718	4.61	2
46	20274	4.71	2
46	20830	4.81	2
46	21386	4.91	2
46	21951	5.01	2
46	22507	5.11	2
46	23063	5.21	2
46	23619	5.31	2
46	24175	5.41	2
46	24731	5.51	2
46	25287	5.61	2
46	25843	5.71	2
46	26399	5.81	2
46	26955	5.91	2
46	27519	6.01	2
46	28075	6.11	2
46	28631	6.21	2
46	29187	6.31	2
46	29743	6.41	2
46	30299	6.51	2
46	30855	6.61	2
46	31411	6.71	2
46	31967	6.81	2
46	32523	6.91	2
46	33087	7.01	2
46	33643	7.11	2
46	34199	7.21	2
46	34755	7.31	2
46	35311	7.41	2
46	35867	7.51	2
46	36423	7.61	2
46	36979	7.71	2
46	37535	7.81	2
46	38091	7.91	2
46	38655	8.01	2
46	39211	8.11	2
46	39767	8.21	2
46	40323	8.31	2
46	40879	8.41	2
46	41435	8.51	2
46	41991	8.61	2
46	42547	8.71	2
46	43103	8.81	2
46	43659	8.91	2
46	44223	9.01	2
46	44779	9.11	2
46	45335	9.21	2
46	45891	9.31	2
46	46447	9.41	2
58	900	1.229658434327	0.099999338705
58	1456	1.329657773032	0.099999338705
58	2012	1.429657111737	0.099999338705
58	2568	1.529656450442	0.099999338705
58	3124	1.629655789147	0.099999338705
58	3680	1.729655127852	0.099999338705
58	4236	1.829654466557	0.099999338705
58	4792	1.929653805262	0.099999338705
58	5356	2.029653143967	0.099999338705
58	5912	2.129652482672	0.099999338705
58	6468	2.229664821377	0.100012338705
58	7024	2.329664160082	0.099999338705
58	7580	2.429663498787	0.099999338705
58	8136	2.529662837492	0.099999338705
58	8692	2.629662176197	0.099999338705
58	9248	2.729661514902	0.099999338705
58	9804	2.829660853607	0.099999338705
58	10360	2.929660192312	0.099999338705
58	10924	3.029659531017	0.099999338705
58	11480	3.129658869722	0.099999338705
58	12036	3.229658208427	0.099999338705
58	12592	3.329657547132	0.099999338705
58	13148	3.429656885837	0.099999338705
58	13704	3.529656224542	0.099999338705
58	14260	3.629655563247	0.099999338705
58	14816	3.729654901952	0.099999338705
58	15372	3.829654240657	0.099999338705
58	15928	3.929653579362	0.099999338705
58	16492	4.029652918067	0.099999338705
58	17048	4.129652256772	0.099999338705
58	17604	4.229664595477	0.100012338705
58	18160	4.329663934182	0.099999338705
58	18716	4.429663272887	0.099999338705
58	19272	4.529662611592	0.099999338705
58	19828	4.629661950297	0.099999338705
58	20384	4.729661289002	0.099999338705
58	20940	4.829660627707	0.099999338705
58	21496	4.929659966412	0.099999338705
58	22061	5.029659305117	0.099999338705
58	22617	5.129658643816	0.099999338699
58	23173	5.229657982437	0.099999338621
58	23729	5.329657320818	0.099999338381
58	24285	5.429656658706	0.099999337888
58	24841	5.529655995767	0.099999337061
58	25397	5.629655331581	0.099999335814
58	25953	5.729654665644	0.099999334063
58	26509	5.829653997371	0.099999331727
58	27065	5.929653326098	0.099999328727
58	27629	6.02965265108	0.099999324982
58	28185	6.129664971493	0.100012320413
58	28741	6.229664286441	0.099999314948
58	29297	6.329663594958	0.099999308517
58	29853	6.429662896006	0.099999301048
58	30409	6.52966218848	0.099999292474
58	30965	6.629661471203	0.099999282723
58	31521	6.729660742936	0.099999271733
58	32077	6.829660002373	0.099999259437
58	32633	6.929659248147	0.099999245774
58	33197	7.029658478819	0.099999230672
58	33753	7.129657692904	0.099999214085
58	34309	7.229656888879	0.099999195975
58	34865	7.329656065215	0.099999176336
58	35421	7.429655220404	0.099999155189
58	35977	7.52965435301	0.099999132606
58	36533	7.629653461678	0.099999108668
58	37089	7.729652545159	0.099999083481
58	37639	7.829664602306	0.100012057147
58	38195	7.929663632101	0.099999029795
58	38759	8.029662633653	0.099999001552
58	39315	8.129661606215	0.099998972562
58	39871	8.229660549165	0.09999894295
58	40427	8.329659461987	0.099998912822
58	40983	8.429658344266	0.099998882279
58	41539	8.529657195706	0.09999885144
58	42095	8.629656016125	0.099998820419
58	42651	8.729654805428	0.099998789303
58	43207	8.829653563593	0.099998758165
58	43763	8.929652290655	0.099998727062
58	44327	9.029663986709	0.100011696054
58	44883	9.129662652122	0.099998665413
58	45439	9.229661287592	0.09999863547
58	45995	9.329659893898	0.099998606306
58	46551	9.42965847214	0.099998578242
57	1038	1.254912008057	0.100012338705
57	1594	1.354885346762	0.099973338705
57	2150	1.454871685467	0.099986338705
57	2706	1.554884024172	0.100012338705
57	3262	1.654870362877	0.099986338705
57	3818	1.754856701582	0.099986338705
57	4374	1.854921040287	0.100064338705
57	4930	1.954881378992	0.099960338705
57	5494	2.054919717697	0.100038338705
57	6050	2.154828056402	0.099908338705
57	6606	2.254892395107	0.100064338705
57	7162	2.354917733812	0.100025338705
57	7718	2.454865072517	0.099947338705
57	8274	2.554838411222	0.099973338705
57	8830	2.654902749927	0.100064338705
57	9386	2.754889088632	0.099986338705
57	9942	2.854927427337	0.100038338705
57	10498	2.954874766042	0.099947338705
57	11062	3.054861104747	0.099986338705
57	11618	3.154899443452	0.100038338705
57	12174	3.254859782157	0.099960338705
57	12730	3.354859120862	0.099999338705
57	13286	3.454923459567	0.100064338705
57	13842	3.554870798272	0.099947338705
57	14398	3.654844136977	0.099973338705
57	14954	3.754830475682	0.099986338705
57	15510	3.854829814387	0.099999338705
57	16066	3.954881153092	0.100051338705
57	16630	4.054854491797	0.099973338705
57	17186	4.154853830502	0.099999338705
57	17742	4.254918169207	0.100064338705
57	18298	4.354904507912	0.099986338705
57	18854	4.454851846617	0.099947338705
57	19410	4.554890185322	0.100038338705
57	19966	4.654863524027	0.099973338705
57	20522	4.754888862732	0.100025338705
57	21078	4.854927201437	0.100038338705
57	21634	4.954848540142	0.099921338705
57	22199	5.054834878841	0.099986338699
57	22755	5.154899217466	0.100064338625
57	23311	5.254872555862	0.099973338396
57	23867	5.354858893798	0.099986337936
57	24423	5.454884230967	0.100025337169
57	24979	5.554896566985	0.100012336018
57	25535	5.654856901395	0.09996033441
57	26091	5.754869233667	0.100012332272
57	26647	5.854868563189	0.099999329522
57	27203	5.954841889276	0.099973326087
57	27767	6.054841211169	0.099999321893
57	28323	6.15489252803	0.100051316861
57	28879	6.254917838953	0.100025310923
57	29435	6.354878142963	0.09996030401
57	29991	6.454838439016	0.099960296053
57	30547	6.554915725999	0.100077286983
57	31103	6.654915002732	0.099999276733
57	31659	6.754849267971	0.099934265239
57	32215	6.854900520406	0.100051252435
57	32771	6.954886758667	0.099986238261
57	33335	7.054846981312	0.099960222645
57	33891	7.154898186854	0.100051205542
57	34447	7.254897373782	0.099999186928
57	35003	7.354857540569	0.099960166787
57	35559	7.454895685722	0.100038145153
57	36115	7.554920807822	0.1000251221
57	36671	7.654893905538	0.099973097716
57	37227	7.754892977647	0.099999072109
57	37783	7.854918023044	0.100025045397
57	38339	7.954878040751	0.099960017707
57	38903	8.054838029933	0.099959989182
57	39459	8.154862989901	0.100024959968
57	40015	8.254861920102	0.099998930201
57	40571	8.354873820081	0.100011899979
57	41127	8.454885689493	0.100011869412
57	41683	8.554910528099	0.100024838606
57	42239	8.654831335746	0.099920807647
57	42795	8.754856112343	0.100024776597
57	43351	8.854828857868	0.099972745525
57	43907	8.954892572354	0.100063714486
57	44471	9.054917256129	0.100024683775
57	45027	9.15491590986	0.099998653731
57	45583	9.254836534249	0.099920624389
[...]
70	8027	2.51	132.43986157745
70	8583	2.61	135.21763944894
70	9139	2.71	137.99541730964
70	9695	2.81	140.77319515795
70	10251	2.91	143.5509729927
70	10815	3.01	146.32875081317
70	11371	3.11	149.10652861917
70	11927	3.21	151.88430641103
70	12483	3.31	154.66208418959
70	13039	3.41	157.43986195614
70	13595	3.51	160.2176397123
70	14151	3.61	162.99541746001
70	14707	3.71	165.77319520133
70	15263	3.81	168.55097293841
70	15819	3.91	171.32875067333
70	16383	4.01	174.10652840801
70	16939	4.11	176.88430614416
70	17495	4.21	179.66208388319
70	18051	4.31	182.43986162618
70	18607	4.41	185.21763937387
70	19163	4.51	187.99541712663
70	19719	4.61	190.77319488453
70	20275	4.71	193.55097264734
70	20831	4.81	196.32875041458
70	21387	4.91	199.10652818563
70	21952	5.01	201.8843059597
70	22508	5.11	204.66208373591
70	23064	5.21	207.43986149758
70	23620	5.31	210.21763887904
70	24176	5.41	212.99541283473
70	24732	5.51	215.77316900224
70	25288	5.61	218.55085990663
70	25844	5.71	221.32836207789
70	26400	5.81	224.10540519853
70	26956	5.91	226.8814695385
70	27520	6.01	229.65565264527
70	28076	6.11	232.42651171961
70	28632	6.21	235.19189339869
70	29188	6.31	237.94876692626
70	29744	6.41	240.6930792379
70	30300	6.51	243.41965091446
70	30856	6.61	246.12213014251
70	31412	6.71	248.79301793577
70	31968	6.81	251.42377232918
70	32524	6.91	254.00499269397
70	33088	7.01	256.52670003533
70	33644	7.11	258.97882706222
70	34200	7.21	261.35181551703
70	34756	7.31	263.63750137672
70	35312	7.41	265.833184024
70	35868	7.51	267.93886667128
70	36424	7.61	269.95454931856
70	36980	7.71	271.88023196584
70	37536	7.81	273.71591461311
70	38092	7.91	275.46159726039
70	38656	8.01	277.11727990767
70	39212	8.11	278.68296255495
70	39768	8.21	280.15864520223
70	40324	8.31	281.54432784951
70	40880	8.41	282.84001049679
70	41436	8.51	284.04569314407
70	41992	8.61	285.16137579134
70	42548	8.71	286.18705843862
70	43104	8.81	287.1227410859
70	43660	8.91	287.96842373318
70	44224	9.01	288.72410638046
70	44780	9.11	289.38978902774
70	45336	9.21	289.96547167502
70	45892	9.31	290.4511543223
70	46448	9.41	290.84683696958
70	46589	9.43	290.91517349903
71	235	1.11	36.55
71	791	1.21	36.55
71	1347	1.31	36.55
71	1903	1.41	36.55
71	2459	1.51	36.55
71	3015	1.61	36.55
71	3571	1.71	36.55
71	4127	1.81	36.55
71	4683	1.91	36.55
71	5247	2.01	36.55
71	5803	2.11	36.55
71	6359	2.21	36.55
71	6915	2.31	36.55
71	7471	2.41	36.55
71	8027	2.51	36.55
71	8583	2.61	36.55
71	9139	2.71	36.55
71	9695	2.81	36.55
71	10251	2.91	36.55
71	10815	3.01	36.55
71	11371	3.11	36.55
71	11927	3.21	36.55
71	12483	3.31	36.55
71	13039	3.41	36.55
71	13595	3.51	36.55
71	14151	3.61	36.55
71	14707	3.71	36.55
71	15263	3.81	36.55
71	15819	3.91	36.55
71	16383	4.01	36.55
71	16939	4.11	36.55
71	17495	4.21	36.55
71	18051	4.31	36.55
71	18607	4.41	36.55
71	19163	4.51	36.55
71	19719	4.61	36.55
71	20275	4.71	36.55
71	20831	4.81	36.55
71	21387	4.91	36.55
71	21952	5.01	36.55
71	22508	5.11	36.55
71	23064	5.21	36.55
71	23620	5.31	36.55
71	24176	5.41	36.55
71	24732	5.51	36.55
71	25288	5.61	36.55
71	25844	5.71	36.55
71	26400	5.81	36.55
71	26956	5.91	36.55
71	27520	6.01	36.55
71	28076	6.11	36.55
71	28632	6.21	36.55
71	29188	6.31	36.55
71	29744	6.41	36.55
71	30300	6.51	36.55
71	30856	6.61	36.55
71	31412	6.71	36.55
71	31968	6.81	36.55
71	32524	6.91	36.55
71	33088	7.01	36.55
71	33644	7.11	36.55
71	34200	7.21	36.55
71	34756	7.31	36.55
71	35312	7.41	36.55
71	35868	7.51	36.55
71	36424	7.61	36.55
71	36980	7.71	36.55
71	37536	7.81	36.55
71	38092	7.91	36.55
71	38656	8.01	36.55
71	39212	8.11	36.55
71	39768	8.21	36.55
71	40324	8.31	36.55
71	40880	8.41	36.55
71	41436	8.51	36.55
71	41992	8.61	36.55
71	42548	8.71	36.55
71	43104	8.81	36.55
71	43660	8.91	36.55
71	44224	9.01	36.55
71	44780	9.11	36.55
71	45336	9.21	36.55
71	45892	9.31	36.55
71	46448	9.41	36.55
71	46589	9.43	36.55
72	235	1.11	1.1174599023889e-07
72	791	1.21	2.2821176060006e-07
72	1347	1.31	3.2149110040791e-07
72	1903	1.41	3.9181173860925e-07
72	2459	1.51	4.3695607132577e-07
72	3015	1.61	4.5308077289974e-07
72	3571	1.71	4.3585046682892e-07
72	4127	1.81	3.8163463500496e-07
72	4683	1.91	2.8856810274647e-07
72	5247	2.01	1.5733476743662e-07
72	5803	2.11	-8.4163787050784e-09
72	6359	2.21	-2.0204637962706e-07
72	6915	2.31	-4.1427092867252e-07
72	7471	2.41	-6.3380909409716e-07
72	8027	2.51	-8.4824769430725e-07
72	8583	2.61	-1.0450243337345e-06
72	9139	2.71	-1.2124086623544e-06
72	9695	2.81	-1.3404058307742e-06
72	10251	2.91	-1.421484085995e-06
72	10815	3.01	-1.4510892043518e-06
72	11371	3.11	-1.4278995763561e-06
72	11927	3.21	-1.3538258514245e-06
72	12483	3.31	-1.2337650900918e-06
72	13039	3.41	-1.0751513457308e-06
72	13595	3.51	-8.8734743997065e-07
72	14151	3.61	-6.8093868321739e-07
72	14707	3.71	-4.669868047813e-07
72	15263	3.81	-2.5630058075876e-07
72	15819	3.91	-5.8781068901226e-08
72	16383	4.01	1.171269303768e-07
72	16939	4.11	2.6484094917123e-07
72	17495	4.21	3.7989167367414e-07
72	18051	4.31	4.6001815690033e-07
72	18607	4.41	5.0510635674073e-07
72	19163	4.51	5.1699871050914e-07
72	19719	4.61	4.9919890443562e-07
72	20275	4.71	4.5649741764464e-07
72	20831	4.81	3.9455478884065e-07
72	21387	4.91	3.1947280376698e-07
72	21952	5.01	2.3738238041915e-07
72	22508	5.11	1.3368506301958e-08
72	23064	5.21	-1.2732682108663e-05
72	23620	5.31	-0.00017886465890626
72	24176	5.41	-0.00113969764719
72	24732	5.51	-0.0046895908223377
72	25288	5.61	-0.014578812248445
72	25844	5.71	-0.037256456665702
72	26400	5.81	-0.082334951028074
72	26956	5.91	-0.16260315879464
72	27520	6.01	-0.2934941406167
72	28076	6.11	-0.49200652857841
72	28632	6.21	-0.7751679923814
72	29188	6.31	-1.1582020557679
72	29744	6.41	-1.6526067792991
72	30300	6.51	-2.2643714731814
72	30856	6.61	-2.9925458574194
72	31412	6.71	-3.828338711206
72	31968	6.81	-4.7548663794544
72	32524	6.91	-5.7474386066829
72	33088	7.01	-6.7620059183341
72	33644	7.11	-7.7360749839418
72	34200	7.21	-8.6181807868883
72	34756	7.31	-9
72	35312	7.41	-9
72	35868	7.51	-9
72	36424	7.61	-9
72	36980	7.71	-9
72	37536	7.81	-9
72	38092	7.91	-9
72	38656	8.01	-9
72	39212	8.11	-9
72	39768	8.21	-9
72	40324	8.31	-9
72	40880	8.41	-9
72	41436	8.51	-9
72	41992	8.61	-9
72	42548	8.71	-9
72	43104	8.81	-9
72	43660	8.91	-9
72	44224	9.01	-9
72	44780	9.11	-9
72	45336	9.21	-9
72	45892	9.31	-9
72	46448	9.41	-9
72	46589	9.43	-9
73	235	1.11	7.6236058058991e-07
73	791	1.21	7.5699478744677e-07
73	1347	1.31	7.3709812298262e-07
73	1903	1.41	6.8940534643976e-07
73	2459	1.51	6.0094633980157e-07
73	3015	1.61	4.6214890758733e-07
73	3571	1.71	2.6894091457545e-07
73	4127	1.81	2.378134311698e-08
73	4683	1.91	-2.6432890010142e-07
73	5247	2.01	-5.8070603140929e-07
73	5803	2.11	-9.064980546943e-07
73	6359	2.21	-1.2206051422936e-06
73	6915	2.31	-1.501753452852e-06
73	7471	2.41	-1.7304889947667e-06
73	8027	2.51	-1.8908976748833e-06
73	8583	2.61	-1.9719083515686e-06
73	9139	2.71	-1.9680927578018e-06
73	9695	2.81	-1.8799317658136e-06
73	10251	2.91	-1.713570960978e-06
73	10815	3.01	-1.4801293903114e-06
73	11371	3.11	-1.1946582413695e-06
73	11927	3.21	-8.7486345634602e-07
73	12483	3.31	-5.3971779874947e-07
73	13039	3.41	-2.0807969628815e-07
73	13595	3.51	1.0257455862472e-07
73	14151	3.61	3.7721929698383e-07
73	14707	3.71	6.0408730521525e-07
73	15263	3.81	7.7518125311353e-07
73	15819	3.91	8.8648066724299e-07
73	16383	4.01	9.3785839538896e-07
73	16939	4.11	9.3274251433684e-07
73	17495	4.21	8.7757146675453e-07
73	18051	4.31	7.8110107833614e-07
73	18607	4.41	6.5362786709026e-07
73	19163	4.51	5.0619050166271e-07
73	19719	4.61	3.4980507912508e-07
73	20275	4.71	1.9478315434659e-07
73	20831	4.81	5.016765195857e-08
73	21387	4.91	-7.6687379409653e-08
73	21952	5.01	-1.8038187773091e-07
73	22508	5.11	-3.8805353703708e-06
73	23064	5.21	-0.00019512293082376
73	23620	5.31	-0.001942617224555
73	24176	5.41	-0.0096578486077643
73	24732	5.51	-0.032658358388035
73	25288	5.61	-0.086284200662915
73	25844	5.71	-0.1918320976831
73	26400	5.81	-0.37518461938942
73	26956	5.91	-0.66428116059763
73	27520	6.01	-1.0857787538007
73	28076	6.11	-1.6613714440644
73	28632	6.21	-2.4042759378686
73	29188	6.31	-3.3163566384294
73	29744	6.41	-4.3862698376061
73	30300	6.51	-5.5888736129937
73	30856	6.61	-6.8859971650142
73	31412	6.71	-8.2285103521343
73	31968	6.81	-9.5594978051336
73	32524	6.91	-10.811910637906
73	33088	7.01	-11.792278620832
73	33644	7.11	-12.43638329139
73	34200	7.21	-12.763248599397
73	34756	7.31	-12.835013060529
73	35312	7.41	-12.868832714502
73	35868	7.51	-12.902652368476
73	36424	7.61	-12.936472022449
73	36980	7.71	-12.970291676423
73	37536	7.81	-13.004111330396
73	38092	7.91	-13.03793098437
73	38656	8.01	-13.071750638343
73	39212	8.11	-13.105570292317
73	39768	8.21	-13.137243767956
73	40324	8.31	-13.148049017475
73	40880	8.41	-13.1158177236
73	41436	8.51	-13.025157284395
73	41992	8.61	-12.867474697468
73	42548	8.71	-12.640450523091
73	43104	8.81	-12.347148404999
73	43660	8.91	-11.994886399289
73	44224	9.01	-11.59399126984
73	44780	9.11	-11.156245120763
73	45336	9.21	-10.690120333786
73	45892	9.31	-10.193000270853
73	46448	9.41	-9.6253018794032
73	46589	9.43	-9.42371758663
74	5105	2	3
74	10673	3	3
74	16241	4	3
74	21810	5	3
74	27378	6	3
74	32946	7	3
74	38514	8	3
74	44082	9	3
75	5105	2	0.022968
75	10673	3	0.02625
75	16241	4	0.02625
75	21810	5	0.02625
75	27378	6	0.02625
75	32946	7	0.02625
75	38514	8	0.02625
75	44082	9	0.02625
76	5105	2	0
76	10673	3	0
76	16241	4	0
76	21810	5	0
76	27378	6	0
76	32946	7	0
76	38514	8	0
76	44082	9	0
77	1044	1.254912055868	3
77	1600	1.354885394573	3
77	2156	1.454871733278	3
77	2712	1.554884071983	3
77	3268	1.654870410688	3
77	3824	1.754856749393	3
77	4380	1.854921088098	3
77	4936	1.954881426803	3
77	5500	2.054919765508	3
77	6056	2.154828104213	3
77	6612	2.254892442918	3
77	7168	2.354917781623	3
77	7724	2.454865120328	3
77	8280	2.554838459033	3
77	8836	2.654902797738	3
77	9392	2.754889136443	3
77	9948	2.854927475148	3
77	10504	2.954874813853	3
77	11068	3.054861152558	3
77	11624	3.154899491263	3
77	12180	3.254859829968	3
77	12736	3.354859168673	3
77	13292	3.454923507378	3
77	13848	3.554870846083	3
77	14404	3.654844184788	3
77	14960	3.754830523493	3
77	15516	3.854829862198	3
77	16072	3.954881200903	3
77	16636	4.054854539608	3
77	17192	4.154853878313	3
77	17748	4.254918217018	3
77	18304	4.354904555723	3
77	18860	4.454851894428	3
77	19416	4.554890233133	3
77	19972	4.654863571838	3
77	20528	4.754888910543	3
77	21084	4.854927249248	3
77	21640	4.954848587953	3
77	22205	5.054834926652	3
77	22761	5.154899265277	3
77	23317	5.254872603673	3
77	23873	5.354858941609	3
77	24429	5.454884278776	3
77	24985	5.55489661479	3
77	25541	5.65485694919	3
77	26097	5.754869281441	3
77	26653	5.854868610922	3
77	27209	5.954841936938	3
77	27773	6.054841258715	3
77	28329	6.154892575402	3
77	28885	6.254917886074	3
77	29441	6.354878189744	3
77	29997	6.454838485348	3
77	30553	6.554915771764	3
77	31109	6.654915047804	3
77	31665	6.754849312218	3
77	32221	6.854900563703	3
77	32777	6.954886800895	3
77	33341	7.054847022383	3
77	33897	7.154898226713	3
77	34453	7.254897412405	3
77	35009	7.354857577953	3
77	35565	7.454895721867	3
77	36121	7.554920842728	3
77	36677	7.654893939205	3
77	37233	7.754893010075	3
77	37789	7.854918054233	3
77	38345	7.954878070701	3
77	38909	8.054838058644	3
77	39465	8.154863017373	3
77	40021	8.254861946335	3
77	40577	8.354873845079	3
77	41133	8.454885713262	3
77	41689	8.554910550653	3
77	42245	8.654831357105	3
77	42801	8.754856132534	3
77	43357	8.854828876922	3
77	43913	8.954892590311	3
77	44477	9.054917273031	3
77	45033	9.154915925752	3
77	45589	9.254836549179	3
77	46145	9.354835144092	3
78	832	1.213905386516	3
78	1388	1.313904725221	3
78	1944	1.413904063926	3
78	2500	1.513903402631	3
78	3056	1.613902741336	3
78	3612	1.713902080041	3
78	4168	1.813901418746	3
78	4724	1.913900757451	3
78	5288	2.013900096156	3
78	5844	2.113899434861	3
78	6400	2.213898773566	3
78	6956	2.313898112271	3
78	7512	2.413897450976	3
78	8068	2.513896789681	3
78	8624	2.613896128386	3
78	9180	2.713908467091	3
78	9736	2.813907805796	3
78	10292	2.913907144501	3
78	10856	3.013906483206	3
78	11412	3.113905821911	3
78	11968	3.213905160616	3
78	12524	3.313904499321	3
78	13080	3.413903838026	3
78	13636	3.513903176731	3
78	14192	3.613902515436	3
78	14748	3.713901854141	3
78	15304	3.813901192846	3
78	15860	3.913900531551	3
78	16424	4.013899870256	3
78	16980	4.113899208961	3
78	17536	4.213898547666	3
78	18092	4.313897886371	3
78	18648	4.413897225076	3
78	19204	4.513896563781	3
78	19760	4.613895902486	3
78	20316	4.713908241191	3
78	20872	4.813907579896	3
78	21428	4.913906918601	3
78	21993	5.013906257306	3
78	22549	5.113905596005	3
78	23105	5.21390493463	3
78	23661	5.313904273026	3
78	24217	5.41390361096	3
78	24773	5.513902948121	3
78	25329	5.613902284121	3
78	25885	5.713901618488	3
78	26441	5.813900950668	3
78	26997	5.913900280018	3
78	27561	6.013899605809	3
78	28117	6.113898927218	3
78	28673	6.213898243338	3
78	29229	6.313897553178	3
78	29785	6.413896855666	3
78	30341	6.513896149654	3
78	30897	6.613908433918	3
78	31453	6.713907707168	3
78	32009	6.813906968054	3
78	32565	6.913906215169	3
78	33129	7.013905447071	3
78	33685	7.113904662305	3
78	34241	7.21390385937	3
78	34797	7.313903036755	3
78	35353	7.41390219295	3
78	35909	7.513901326508	3
78	36465	7.613900436066	3
78	37021	7.713899520363	3
78	37577	7.813898578248	3
78	38133	7.913897608695	3
78	38697	8.013896610812	3
78	39253	8.113908583847	3
78	39809	8.213907527183	3
78	40365	8.313906440305	3
78	40921	8.413905322816	3
78	41477	8.513904174437	3
78	42033	8.613902995008	3
78	42583	8.71390178446	3
78	43139	8.813900542792	3
78	43695	8.913899270059	3
78	44259	9.013897966374	3
78	44815	9.113896632108	3
78	45371	9.213908267937	3
78	45927	9.313906874568	3
78	46483	9.413905452795	3
79	1044	1.254912055868	0.100012338705
79	1600	1.354885394573	0.099973338705
79	2156	1.454871733278	0.099986338705
79	2712	1.554884071983	0.100012338705
79	3268	1.654870410688	0.099986338705
79	3824	1.754856749393	0.099986338705
79	4380	1.854921088098	0.100064338705
79	4936	1.954881426803	0.099960338705
79	5500	2.054919765508	0.100038338705
79	6056	2.154828104213	0.099908338705
79	6612	2.254892442918	0.100064338705
79	7168	2.354917781623	0.100025338705
79	7724	2.454865120328	0.099947338705
79	8280	2.554838459033	0.099973338705
79	8836	2.654902797738	0.100064338705
79	9392	2.754889136443	0.099986338705
79	9948	2.854927475148	0.100038338705
79	10504	2.954874813853	0.099947338705
79	11068	3.054861152558	0.099986338705
79	11624	3.154899491263	0.100038338705
79	12180	3.254859829968	0.099960338705
79	12736	3.354859168673	0.099999338705
79	13292	3.454923507378	0.100064338705
79	13848	3.554870846083	0.099947338705
79	14404	3.654844184788	0.099973338705
79	14960	3.754830523493	0.099986338705
79	15516	3.854829862198	0.099999338705
79	16072	3.954881200903	0.100051338705
79	16636	4.054854539608	0.099973338705
79	17192	4.154853878313	0.099999338705
79	17748	4.254918217018	0.100064338705
79	18304	4.354904555723	0.099986338705
79	18860	4.454851894428	0.099947338705
79	19416	4.554890233133	0.100038338705
79	19972	4.654863571838	0.099973338705
79	20528	4.754888910543	0.100025338705
79	21084	4.854927249248	0.100038338705
79	21640	4.954848587953	0.099921338705
79	22205	5.054834926652	0.099986338699
79	22761	5.154899265277	0.100064338625
79	23317	5.254872603673	0.099973338396
79	23873	5.354858941609	0.099986337936
79	24429	5.454884278776	0.100025337167
79	24985	5.55489661479	0.100012336014
79	25541	5.65485694919	0.0999603344
79	26097	5.754869281441	0.100012332251
79	26653	5.854868610922	0.099999329481
79	27209	5.954841936938	0.099973326016
79	27773	6.054841258715	0.099999321777
79	28329	6.154892575402	0.100051316687
79	28885	6.254917886074	0.100025310672
79	29441	6.354878189744	0.09996030367
79	29997	6.454838485348	0.099960295604
79	30553	6.554915771764	0.100077286416
79	31109	6.654915047804	0.09999927604
79	31665	6.754849312218	0.099934264414
79	32221	6.854900563703	0.100051251485
79	32777	6.954886800895	0.099986237192
79	33341	7.054847022383	0.099960221488
79	33897	7.154898226713	0.10005120433
79	34453	7.254897412405	0.099999185692
79	35009	7.354857577953	0.099960165548
79	35565	7.454895721867	0.100038143914
79	36121	7.554920842728	0.100025120861
79	36677	7.654893939205	0.099973096477
79	37233	7.754893010075	0.09999907087
79	37789	7.854918054233	0.100025044158
79	38345	7.954878070701	0.099960016468
79	38909	8.054838058644	0.099959987943
79	39465	8.154863017373	0.100024958729
79	40021	8.254861946335	0.099998928962
79	40577	8.354873845079	0.100011898744
79	41133	8.454885713262	0.100011868183
79	41689	8.554910550653	0.100024837391
79	42245	8.654831357105	0.099920806452
79	42801	8.754856132534	0.100024775429
79	43357	8.854828876922	0.099972744388
79	43913	8.954892590311	0.100063713389
79	44477	9.054917273031	0.10002468272
79	45033	9.154915925752	0.099998652721
79	45589	9.254836549179	0.099920623427
79	46145	9.354835144092	0.099998594913
80	832	1.213905386516	0.099999338705
80	1388	1.313904725221	0.099999338705
80	1944	1.413904063926	0.099999338705
80	2500	1.513903402631	0.099999338705
80	3056	1.613902741336	0.099999338705
80	3612	1.713902080041	0.099999338705
80	4168	1.813901418746	0.099999338705
80	4724	1.913900757451	0.099999338705
80	5288	2.013900096156	0.099999338705
80	5844	2.113899434861	0.099999338705
80	6400	2.213898773566	0.099999338705
80	6956	2.313898112271	0.099999338705
80	7512	2.413897450976	0.099999338705
80	8068	2.513896789681	0.099999338705
80	8624	2.613896128386	0.099999338705
80	9180	2.713908467091	0.100012338705
80	9736	2.813907805796	0.099999338705
80	10292	2.913907144501	0.099999338705
80	10856	3.013906483206	0.099999338705
80	11412	3.113905821911	0.099999338705
80	11968	3.213905160616	0.099999338705
80	12524	3.313904499321	0.099999338705
80	13080	3.413903838026	0.099999338705
80	13636	3.513903176731	0.099999338705
80	14192	3.613902515436	0.099999338705
80	14748	3.713901854141	0.099999338705
80	15304	3.813901192846	0.099999338705
80	15860	3.913900531551	0.099999338705
80	16424	4.013899870256	0.099999338705
80	16980	4.113899208961	0.099999338705
80	17536	4.213898547666	0.099999338705
80	18092	4.313897886371	0.099999338705
80	18648	4.413897225076	0.099999338705
80	19204	4.513896563781	0.099999338705
80	19760	4.613895902486	0.099999338705
80	20316	4.713908241191	0.100012338705
80	20872	4.813907579896	0.099999338705
80	21428	4.913906918601	0.099999338705
80	21993	5.013906257306	0.099999338705
80	22549	5.113905596005	0.099999338699
80	23105	5.21390493463	0.099999338625
80	23661	5.313904273026	0.099999338396
80	24217	5.41390361096	0.099999337934
80	24773	5.513902948121	0.099999337161
80	25329	5.613902284121	0.099999336
80	25885	5.713901618488	0.099999334367
80	26441	5.813900950668	0.09999933218
80	26997	5.913900280018	0.09999932935
80	27561	6.013899605809	0.099999325791
80	28117	6.113898927218	0.099999321409
80	28673	6.213898243338	0.09999931612
80	29229	6.313897553178	0.09999930984
80	29785	6.413896855666	0.099999302488
80	30341	6.513896149654	0.099999293988
80	30897	6.613908433918	0.100012284264
80	31453	6.713907707168	0.09999927325
80	32009	6.813906968054	0.099999260886
80	32565	6.913906215169	0.099999247115
80	33129	7.013905447071	0.099999231902
80	33685	7.113904662305	0.099999215234
80	34241	7.21390385937	0.099999197065
80	34797	7.313903036755	0.099999177385
80	35353	7.41390219295	0.099999156195
80	35909	7.513901326508	0.099999133558
80	36465	7.613900436066	0.099999109558
80	37021	7.713899520363	0.099999084297
80	37577	7.813898578248	0.099999057885
80	38133	7.913897608695	0.099999030447
80	38697	8.013896610812	0.099999002117
80	39253	8.113908583847	0.100011973035
80	39809	8.213907527183	0.099998943336
80	40365	8.313906440305	0.099998913122
80	40921	8.413905322816	0.099998882511
80	41477	8.513904174437	0.099998851621
80	42033	8.613902995008	0.099998820571
80	42583	8.71390178446	0.099998789452
80	43139	8.813900542792	0.099998758332
80	43695	8.913899270059	0.099998727267
80	44259	9.013897966374	0.099998696315
80	44815	9.113896632108	0.099998665734
80	45371	9.213908267937	0.100011635829
80	45927	9.313906874568	0.099998606631
80	46483	9.413905452795	0.099998578227
