version 2
run Sinusoidal-2-20170515-14:53:22-4243
attr beaconInterval 0.1
attr busLength 6
attr carLength 4
attr configname Sinusoidal
attr controller 1
attr datetime 20170515-14:53:22
attr experiment Sinusoidal
attr headway 0.1
attr inifile examples/platooning/omnetpp.ini
attr iterationvars "$nCars=3, $platoonSize=8, $nLanes=1, $nTrucks=3, $nBus=2, $carLength=4, $truckLength=5, $busLength=6, $ploegH=0.5, $controller=1, $sController=\"CACC\", $headway=0.1, $leaderHeadway=1.2, $leaderSpeed=100, $beaconInterval=0.1, $priority=2, $packetSize=200, $0=\"2,3,2,3,2,1,1,1\", $1=15, $2=0"
attr iterationvars2 "$nCars=3, $platoonSize=8, $nLanes=1, $nTrucks=3, $nBus=2, $carLength=4, $truckLength=5, $busLength=6, $ploegH=0.5, $controller=1, $sController=\"CACC\", $headway=0.1, $leaderHeadway=1.2, $leaderSpeed=100, $beaconInterval=0.1, $priority=2, $packetSize=200, $0=\"2,3,2,3,2,1,1,1\", $1=15, $2=0, $repetition=0"
attr leaderHeadway 1.2
attr leaderSpeed 100
attr measurement "$nCars=3, $platoonSize=8, $nLanes=1, $nTrucks=3, $nBus=2, $carLength=4, $truckLength=5, $busLength=6, $ploegH=0.5, $controller=1, $sController=\"CACC\", $headway=0.1, $leaderHeadway=1.2, $leaderSpeed=100, $beaconInterval=0.1, $priority=2, $packetSize=200, $0=\"2,3,2,3,2,1,1,1\", $1=15, $2=0"
attr nBus 2
attr nCars 3
attr nLanes 1
attr nTrucks 3
attr network scenario
attr packetSize 200
attr platoonSize 8
attr ploegH 0.5
attr priority 2
attr processid 4243
attr repetition 0
attr replication #0
attr resultdir results
attr runnumber 2
attr sController "\"CACC\""
attr seedset 0
attr truckLength 5
param **.coreDebug false
param **.debug false
param **.headway "${headway = 0.3, 1.2, 0.1, 0.1, 0.1 ! controller}s"
param **.lengthOfBus "${busLength = 6}"
param **.lengthOfCar "${carLength = 4}"
param **.lengthOfTruck "${truckLength = 5}"
param **.numberOfBus "${nBus = 2}"
param **.numberOfCars "${nCars = 3}"
param **.numberOfCarsPerPlatoon "${platoonSize = 8}"
param **.numberOfLanes "${nLanes = 1}"
param **.numberOfTrucks "${nTrucks = 3}"
param **.numericController "${controller = 0, 0, 1, 2, 3}"
param **.seed ${repetition}
param **.traffic.busLength ${busLength}
param **.traffic.carLength ${carLength}
param **.traffic.nBus ${nBus}
param **.traffic.nCars ${nCars}
param **.traffic.nLanes ${nLanes}
param **.traffic.nTrucks ${nTrucks}
param **.traffic.platoonInsertDistance "${2, 2, 15, 2, 15 ! controller}m"
param **.traffic.platoonInsertHeadway "${0.3, 1.2, 0, 0.5, 0.8 ! controller}s"
param **.traffic.platoonInsertSpeed ${leaderSpeed}kmph
param **.traffic.platoonInsertTime "1 s"
param **.traffic.platoonLeaderHeadway ${leaderHeadway}s
param **.traffic.platoonSize ${platoonSize}
param **.traffic.platooningVType "\"vtypeauto\""
param **.traffic.platooningVTypeBus "\"vtypebus\""
param **.traffic.platooningVTypeTruck "\"vtypeheter\""
param **.traffic.truckLength ${truckLength}
param **.traffic.vehicleTypeInPlatoon "${\"2,3,2,3,2,1,1,1\"}"
param **.traffic_type "\"SimpleHeterogenous\""
param *.**.nic.mac1609_4.bitrate 6Mbps
param *.**.nic.mac1609_4.txPower 100mW
param *.**.nic.mac1609_4.useServiceChannel false
param *.**.nic.phy80211p.analogueModels "xmldoc(\"/home/hh-ide/src/plexe-veins/examples/platooning/config.xml\")"
param *.**.nic.phy80211p.decider "xmldoc(\"/home/hh-ide/src/plexe-veins/examples/platooning/config.xml\")"
param *.**.nic.phy80211p.maxTXPower 100mW
param *.**.nic.phy80211p.sensitivity -94dBm
param *.**.nic.phy80211p.thermalNoise -95dBm
param *.**.nic.phy80211p.usePropagationDelay true
param *.**.nic.phy80211p.useThermalNoise true
param *.annotations.draw false
param *.connectionManager.alpha 2.0
param *.connectionManager.carrierFrequency "5.890e9 Hz"
param *.connectionManager.maxInterfDist 0
param *.connectionManager.pMax 100mW
param *.connectionManager.sat -94dBm
param *.connectionManager.sendDirect true
param *.manager.autoShutdown true
param *.manager.commandLine "\"sumo-gui --remote-port $port --seed $seed --configuration-file $configFile\""
param *.manager.configFile "\"/home/hh-ide/src/plexe-veins/examples/platooning/sumocfg/freeway.sumo.cfg\""
param *.manager.host "\"localhost\""
param *.manager.margin 25
param *.manager.moduleDisplayString "\"\""
param *.manager.moduleName "\"node\""
param *.manager.moduleType "\"Car\""
param *.manager.updateInterval 0.01s
param *.node[*].appl.simulationDuration "60 s"
param *.node[*].appl_type "\"SimplePlatooningApp\""
param *.node[*].helper.nBus ${nBus}
param *.node[*].helper.nCars ${nCars}
param *.node[*].helper.nLanes ${nLanes}
param *.node[*].helper.nTrucks ${nTrucks}
param *.node[*].helper.platoonSize ${platoonSize}
param *.node[*].helper_type "\"PositionHelper\""
param *.node[*].mobility.x 0
param *.node[*].mobility.y 0
param *.node[*].mobility.z 1.895
param *.node[*].prot.beaconingInterval "${beaconInterval = 0.1}s"
param *.node[*].prot.packetSize "${packetSize = 200}"
param *.node[*].prot.priority "${priority = 2}"
param *.node[*].prot.useControllerAcceleration true
param *.node[*].protocol_type "\"SimplePlatooningBeaconing\""
param *.node[*].scenario.accHeadway ${headway}s
param *.node[*].scenario.caccC1 0.5
param *.node[*].scenario.caccOmegaN "0.2 Hz"
param *.node[*].scenario.caccXi 1
param *.node[*].scenario.controller "${sController = \"ACC\", \"ACC\", \"CACC\", \"PLOEG\", \"CONSENSUS\" ! controller}"
param *.node[*].scenario.engineTau "0.5 s"
param *.node[*].scenario.leaderHeadway "${leaderHeadway = 1.2}s"
param *.node[*].scenario.leaderOscillationFrequency "0.2 Hz"
param *.node[*].scenario.leaderSpeed "${leaderSpeed = 100}kmph"
param *.node[*].scenario.oscillationAmplitude "10 kmph"
param *.node[*].scenario.ploegH "${ploegH = 0.5}s"
param *.node[*].scenario.ploegKd 0.7
param *.node[*].scenario.ploegKp 0.2
param *.node[*].scenario.startOscillating "5 s"
param *.node[*].scenario.useRealisticEngine false
param *.node[*].scenario_type "\"SinusoidalScenario\""
param *.node[*].unicast.packetLossRate 0
param *.obstacles.debug false
param *.playgroundSizeX 65000m
param *.playgroundSizeY 25000m
param *.playgroundSizeZ 50m
param *.world.use2D false
param *.world.useTorus false

vector 0  scenario.node[0].appl  distance  ETV
vector 1  scenario.node[0].appl  relativeSpeed  ETV
vector 2  scenario.node[0].appl  nodeId  ETV
vector 6  scenario.node[0].appl  acceleration  ETV
vector 7  scenario.node[0].appl  controllerAcceleration  ETV
vector 3  scenario.node[0].appl  speed  ETV
vector 4  scenario.node[0].appl  posx  ETV
vector 5  scenario.node[0].appl  posy  ETV
vector 22  scenario.node[1].appl  distance  ETV
vector 23  scenario.node[1].appl  relativeSpeed  ETV
vector 24  scenario.node[1].appl  nodeId  ETV
vector 28  scenario.node[1].appl  acceleration  ETV
vector 29  scenario.node[1].appl  controllerAcceleration  ETV
vector 25  scenario.node[1].appl  speed  ETV
vector 26  scenario.node[1].appl  posx  ETV
vector 27  scenario.node[1].appl  posy  ETV
vector 44  scenario.node[2].appl  distance  ETV
vector 45  scenario.node[2].appl  relativeSpeed  ETV
vector 46  scenario.node[2].appl  nodeId  ETV
vector 50  scenario.node[2].appl  acceleration  ETV
vector 51  scenario.node[2].appl  controllerAcceleration  ETV
vector 47  scenario.node[2].appl  speed  ETV
vector 48  scenario.node[2].appl  posx  ETV
vector 49  scenario.node[2].appl  posy  ETV
vector 66  scenario.node[3].appl  distance  ETV
vector 67  scenario.node[3].appl  relativeSpeed  ETV
vector 68  scenario.node[3].appl  nodeId  ETV
vector 72  scenario.node[3].appl  acceleration  ETV
vector 73  scenario.node[3].appl  controllerAcceleration  ETV
vector 69  scenario.node[3].appl  speed  ETV
vector 70  scenario.node[3].appl  posx  ETV
vector 71  scenario.node[3].appl  posy  ETV
vector 88  scenario.node[4].appl  distance  ETV
vector 89  scenario.node[4].appl  relativeSpeed  ETV
vector 90  scenario.node[4].appl  nodeId  ETV
vector 94  scenario.node[4].appl  acceleration  ETV
vector 95  scenario.node[4].appl  controllerAcceleration  ETV
vector 91  scenario.node[4].appl  speed  ETV
vector 92  scenario.node[4].appl  posx  ETV
vector 93  scenario.node[4].appl  posy  ETV
vector 110  scenario.node[5].appl  distance  ETV
vector 111  scenario.node[5].appl  relativeSpeed  ETV
vector 112  scenario.node[5].appl  nodeId  ETV
vector 116  scenario.node[5].appl  acceleration  ETV
vector 117  scenario.node[5].appl  controllerAcceleration  ETV
vector 113  scenario.node[5].appl  speed  ETV
vector 114  scenario.node[5].appl  posx  ETV
vector 115  scenario.node[5].appl  posy  ETV
vector 132  scenario.node[6].appl  distance  ETV
vector 133  scenario.node[6].appl  relativeSpeed  ETV
vector 134  scenario.node[6].appl  nodeId  ETV
vector 138  scenario.node[6].appl  acceleration  ETV
vector 139  scenario.node[6].appl  controllerAcceleration  ETV
vector 135  scenario.node[6].appl  speed  ETV
vector 136  scenario.node[6].appl  posx  ETV
vector 137  scenario.node[6].appl  posy  ETV
vector 154  scenario.node[7].appl  distance  ETV
vector 155  scenario.node[7].appl  relativeSpeed  ETV
vector 156  scenario.node[7].appl  nodeId  ETV
vector 160  scenario.node[7].appl  acceleration  ETV
vector 161  scenario.node[7].appl  controllerAcceleration  ETV
vector 157  scenario.node[7].appl  speed  ETV
vector 158  scenario.node[7].appl  posx  ETV
vector 159  scenario.node[7].appl  posy  ETV
vector 8  scenario.node[0].prot  nodeId  ETV
vector 9  scenario.node[0].prot  busyTime  ETV
vector 10  scenario.node[0].prot  collisions  ETV
vector 30  scenario.node[1].prot  nodeId  ETV
vector 31  scenario.node[1].prot  busyTime  ETV
vector 32  scenario.node[1].prot  collisions  ETV
vector 52  scenario.node[2].prot  nodeId  ETV
vector 53  scenario.node[2].prot  busyTime  ETV
vector 54  scenario.node[2].prot  collisions  ETV
vector 74  scenario.node[3].prot  nodeId  ETV
vector 75  scenario.node[3].prot  busyTime  ETV
vector 76  scenario.node[3].prot  collisions  ETV
vector 96  scenario.node[4].prot  nodeId  ETV
vector 97  scenario.node[4].prot  busyTime  ETV
vector 98  scenario.node[4].prot  collisions  ETV
vector 118  scenario.node[5].prot  nodeId  ETV
vector 119  scenario.node[5].prot  busyTime  ETV
vector 120  scenario.node[5].prot  collisions  ETV
vector 140  scenario.node[6].prot  nodeId  ETV
vector 141  scenario.node[6].prot  busyTime  ETV
vector 142  scenario.node[6].prot  collisions  ETV
vector 162  scenario.node[7].prot  nodeId  ETV
vector 163  scenario.node[7].prot  busyTime  ETV
vector 164  scenario.node[7].prot  collisions  ETV
0	248	1.11	15.000297416791
0	372	1.21	15.003031824166
0	495	1.31	15.010750587062
0	619	1.41	15.025467384139
0	743	1.51	15.048715226312
0	866	1.61	15.081605968083
0	989	1.71	15.124885985039
0	1113	1.81	15.178987832363
0	1236	1.91	15.244077791756
0	1370	2.01	15.320099292305
0	1493	2.11	15.406812255707
0	1616	2.21	15.50382846932
0	1739	2.31	15.610643132875
0	1862	2.41	15.726662757562
0	1985	2.51	15.851229620796
0	2108	2.61	15.983642997179
0	2231	2.71	16.123177397211
0	2354	2.81	16.269098050805
0	2477	2.91	16.420673873794
0	2608	3.01	16.577188152773
0	2731	3.11	16.737947177883
0	2854	3.21	16.90228704475
0	2977	3.31	17.069578836628
0	3100	3.41	17.239232386069
0	3223	3.51	17.410698802802
0	3346	3.61	17.583471941139
0	3469	3.71	17.757088966555
0	3592	3.81	17.93113016737
0	3715	3.91	18.10521814383
0	3846	4.01	18.279016493648
0	3969	4.11	18.452228100255
0	4092	4.21	18.624593117807
0	4215	4.31	18.79588673547
0	4338	4.41	18.965916792672
0	4461	4.51	19.13452130699
0	4584	4.61	19.301565967089
0	4707	4.71	19.466941634658
0	4830	4.81	19.630561891634
0	4953	4.91	19.792360662073
0	5096	5.01	19.952289931889
0	5231	5.11	20.110317584207
0	5366	5.21	20.266425363272
0	5501	5.31	20.420606975717
0	5636	5.41	20.57286633438
0	5771	5.51	20.723215946828
0	5906	5.61	20.871675448185
0	6041	5.71	21.018270275729
0	6176	5.81	21.163030481043
0	6311	5.91	21.305989674111
0	6454	6.01	21.447184092754
0	6589	6.11	21.586651789983
0	6724	6.21	21.724431931403
0	6859	6.31	21.860564194422
0	6994	6.41	21.995088260924
0	7129	6.51	22.128043395084
0	7264	6.61	22.259468098121
0	7399	6.71	22.38939983205
0	7534	6.81	22.517874804785
0	7669	6.91	22.644927809361
0	7812	7.01	22.770592110423
0	7947	7.11	22.894899371639
0	8082	7.21	23.017879618106
0	8217	7.31	23.139561228356
0	8352	7.41	23.259970951016
0	8487	7.51	23.379133941653
0	8622	7.61	23.497073815818
0	8757	7.71	23.613812714697
0	8892	7.81	23.729371380265
0	9027	7.91	23.843769237158
0	9170	8.01	23.957151165473
0	9305	8.11	24.070126197672
0	9440	8.21	24.183720424077
0	9575	8.31	24.299239454148
0	9710	8.41	24.418140307465
0	9845	8.51	24.541916972702
0	9980	8.61	24.6720001954
0	10115	8.71	24.80967178877
0	10250	8.81	24.955993521224
0	10385	8.91	25.11175041821
0	10528	9.01	25.277408123008
0	10663	9.11	25.453083789999
0	10798	9.21	25.638529833541
0	10933	9.31	25.833129724873
0	11068	9.41	26.035904917705
0	11203	9.51	26.245531889451
0	11338	9.61	26.460368208875
0	11473	9.71	26.678486481652
0	11608	9.81	26.897714982501
0	11743	9.91	27.115747197674
0	11886	10.01	27.330424600058
0	12021	10.11	27.539965974679
0	12156	10.21	27.742964436424
0	12291	10.31	27.938344621886
0	12426	10.41	28.125322203684
0	12561	10.51	28.303365941701
0	12696	10.61	28.472162410529
0	12831	10.71	28.631583478019
0	12966	10.81	28.781656555354
0	13101	10.91	28.92253759364
0	13244	11.01	29.054486764719
0	13379	11.11	29.177846733963
0	13514	11.21	29.293023409433
0	13649	11.31	29.400469034096
0	13784	11.41	29.500667475218
0	13919	11.51	29.594121556814
0	14054	11.61	29.681342276539
0	14189	11.71	29.76283974708
0	14324	11.81	29.839115703453
0	14459	11.91	29.910657421094
1	248	1.11	0.011747289749106
1	372	1.21	0.051030605042062
1	495	1.31	0.11279080322838
1	619	1.41	0.19194303164909
1	743	1.51	0.28401405927749
1	866	1.61	0.38510506734342
1	989	1.71	0.49185212794429
1	1113	1.81	0.60138536514688
1	1236	1.91	0.71128764249616
1	1370	2.01	0.81955348330991
1	1493	2.11	0.92454880549457
1	1616	2.21	1.0249719405427
1	1739	2.31	1.1198163064081
1	1862	2.41	1.2083350155349
1	1985	2.51	1.2900076218048
1	2108	2.61	1.364509142857
1	2231	2.71	1.4316814364076
1	2354	2.81	1.4915069600893
1	2477	2.91	1.5440849032007
1	2608	3.01	1.5896096448521
1	2731	3.11	1.6283514655949
1	2854	3.21	1.6606394180192
1	2977	3.31	1.6868462453421
1	3100	3.41	1.7073752250455
1	3223	3.51	1.7226488065705
1	3346	3.61	1.7330989073869
1	3469	3.71	1.7391587299288
1	3592	3.81	1.7412559624445
1	3715	3.91	1.7398072293557
1	3846	4.01	1.7352136608541
1	3969	4.11	1.7278574568639
1	4092	4.21	1.7180993268664
1	4215	4.31	1.7062766941425
1	4338	4.41	1.6927025605347
1	4461	4.51	1.6776649356479
1	4584	4.61	1.6614267423415
1	4707	4.71	1.6442261182727
1	4830	4.81	1.626277041015
1	4953	4.91	1.607770211809
1	5096	5.01	1.5888741402213
1	5231	5.11	1.5697363788463
1	5366	5.21	1.5504848636379
1	5501	5.31	1.531229321473
1	5636	5.41	1.512062712117
1	5771	5.51	1.4930626768683
1	5906	5.61	1.4742929708141
1	6041	5.71	1.455804859831
1	6176	5.81	1.4376384672318
1	6311	5.91	1.4198240583141
1	6454	6.01	1.402383254016
1	6589	6.11	1.3853301674684
1	6724	6.21	1.3686724594619
1	6859	6.31	1.3524123107592
1	6994	6.41	1.3365473107946
1	7129	6.51	1.3210712636476
1	7264	6.61	1.3059749132776
1	7399	6.71	1.2912465908858
1	7534	6.81	1.2768727879597
1	7669	6.91	1.26283865907
1	7812	7.01	1.2491284588538
1	7947	7.11	1.2357259178552
1	8082	7.21	1.2226145620178
1	8217	7.31	1.2097779806544
1	8352	7.41	1.1972000476719
1	8487	7.51	1.1848651007172
1	8622	7.61	1.1727580827467
1	8757	7.71	1.1608646503177
1	8892	7.81	1.1491712526697
1	9027	7.91	1.137724954271
1	9170	8.01	1.1301246589086
1	9305	8.11	1.1311360706548
1	9440	8.21	1.1441681301709
1	9575	8.31	1.171289365162
1	9710	8.41	1.213361231793
1	9845	8.51	1.2701783413612
1	9980	8.61	1.3406127849529
1	10115	8.71	1.4227600358991
1	10250	8.81	1.514084161459
1	10385	8.91	1.6115603122953
1	10528	9.01	1.7118126821971
1	10663	9.11	1.8112463425066
1	10798	9.21	1.9061715572126
1	10933	9.31	1.9929193770292
1	11068	9.41	2.0679474952252
1	11203	9.51	2.1279355255735
1	11338	9.61	2.1698690344425
1	11473	9.71	2.1911118253953
1	11608	9.81	2.1894971573421
1	11743	9.91	2.1651231557199
1	11886	10.01	2.1211261752163
1	12021	10.11	2.0614481908627
1	12156	10.21	1.9895934299314
1	12291	10.31	1.9086503938481
1	12426	10.41	1.8213163952669
1	12561	10.51	1.7299238077205
1	12696	10.61	1.636467336964
1	12831	10.71	1.5426317261292
1	12966	10.81	1.4498194010465
1	13101	10.91	1.3591776476413
1	13244	11.01	1.2716249903649
1	13379	11.11	1.1878765094759
1	13514	11.21	1.1084678960011
1	13649	11.31	1.0337780968016
1	13784	11.41	0.96405044880994
1	13919	11.51	0.89941224167429
1	14054	11.61	0.83989268224764
1	14189	11.71	0.78543926309845
1	14324	11.81	0.73593256099871
1	14459	11.91	0.69119951065261
2	248	1.11	0
2	372	1.21	0
2	495	1.31	0
2	619	1.41	0
2	743	1.51	0
2	866	1.61	0
2	989	1.71	0
2	1113	1.81	0
2	1236	1.91	0
2	1370	2.01	0
2	1493	2.11	0
2	1616	2.21	0
2	1739	2.31	0
2	1862	2.41	0
2	1985	2.51	0
2	2108	2.61	0
2	2231	2.71	0
2	2354	2.81	0
2	2477	2.91	0
2	2608	3.01	0
2	2731	3.11	0
2	2854	3.21	0
2	2977	3.31	0
2	3100	3.41	0
2	3223	3.51	0
2	3346	3.61	0
2	3469	3.71	0
2	3592	3.81	0
2	3715	3.91	0
2	3846	4.01	0
2	3969	4.11	0
2	4092	4.21	0
2	4215	4.31	0
2	4338	4.41	0
2	4461	4.51	0
2	4584	4.61	0
2	4707	4.71	0
2	4830	4.81	0
2	4953	4.91	0
2	5096	5.01	0
2	5231	5.11	0
2	5366	5.21	0
2	5501	5.31	0
2	5636	5.41	0
2	5771	5.51	0
2	5906	5.61	0
2	6041	5.71	0
2	6176	5.81	0
2	6311	5.91	0
2	6454	6.01	0
2	6589	6.11	0
2	6724	6.21	0
2	6859	6.31	0
2	6994	6.41	0
2	7129	6.51	0
2	7264	6.61	0
2	7399	6.71	0
2	7534	6.81	0
2	7669	6.91	0
2	7812	7.01	0
2	7947	7.11	0
2	8082	7.21	0
2	8217	7.31	0
2	8352	7.41	0
2	8487	7.51	0
2	8622	7.61	0
2	8757	7.71	0
2	8892	7.81	0
2	9027	7.91	0
2	9170	8.01	0
2	9305	8.11	0
2	9440	8.21	0
2	9575	8.31	0
2	9710	8.41	0
2	9845	8.51	0
2	9980	8.61	0
2	10115	8.71	0
2	10250	8.81	0
2	10385	8.91	0
2	10528	9.01	0
2	10663	9.11	0
2	10798	9.21	0
2	10933	9.31	0
2	11068	9.41	0
2	11203	9.51	0
2	11338	9.61	0
2	11473	9.71	0
2	11608	9.81	0
2	11743	9.91	0
2	11886	10.01	0
2	12021	10.11	0
2	12156	10.21	0
2	12291	10.31	0
2	12426	10.41	0
2	12561	10.51	0
2	12696	10.61	0
2	12831	10.71	0
2	12966	10.81	0
2	13101	10.91	0
2	13244	11.01	0
2	13379	11.11	0
2	13514	11.21	0
2	13649	11.31	0
2	13784	11.41	0
2	13919	11.51	0
2	14054	11.61	0
2	14189	11.71	0
2	14324	11.81	0
2	14459	11.91	0
3	248	1.11	27.766031335739
3	372	1.21	27.726748020446
3	495	1.31	27.66498782226
3	619	1.41	27.585835593839
3	743	1.51	27.493764566211
3	866	1.61	27.392673558145
3	989	1.71	27.285926497544
3	1113	1.81	27.176393260341
3	1236	1.91	27.066490982992
3	1370	2.01	26.958225142178
3	1493	2.11	26.853229819994
3	1616	2.21	26.752806684946
3	1739	2.31	26.65796231908
3	1862	2.41	26.569443609953
3	1985	2.51	26.487771003684
3	2108	2.61	26.413269482631
3	2231	2.71	26.346097189081
3	2354	2.81	26.286271665399
3	2477	2.91	26.233693722288
3	2608	3.01	26.188168980636
3	2731	3.11	26.149427159893
3	2854	3.21	26.117139207469
3	2977	3.31	26.090932380146
3	3100	3.41	26.070403400443
3	3223	3.51	26.055129818918
3	3346	3.61	26.044679718101
3	3469	3.71	26.03861989556
3	3592	3.81	26.036522663044
3	3715	3.91	26.037971396133
3	3846	4.01	26.042564964634
3	3969	4.11	26.049921168624
3	4092	4.21	26.059679298622
3	4215	4.31	26.071501931346
3	4338	4.41	26.085076064954
3	4461	4.51	26.10011368984
3	4584	4.61	26.116351883147
3	4707	4.71	26.133552507216
3	4830	4.81	26.151501584473
3	4953	4.91	26.170008413679
3	5096	5.01	26.188904485267
3	5231	5.11	26.208042246642
3	5366	5.21	26.22729376185
3	5501	5.31	26.246549304015
3	5636	5.41	26.265715913371
3	5771	5.51	26.28471594862
3	5906	5.61	26.303485654674
3	6041	5.71	26.321973765657
3	6176	5.81	26.340140158256
3	6311	5.91	26.357954567174
3	6454	6.01	26.375395371472
3	6589	6.11	26.39244845802
3	6724	6.21	26.409106166026
3	6859	6.31	26.425366314729
3	6994	6.41	26.441231314694
3	7129	6.51	26.456707361841
3	7264	6.61	26.471803712211
3	7399	6.71	26.486532034602
3	7534	6.81	26.500905837529
3	7669	6.91	26.514939966418
3	7812	7.01	26.528650166634
3	7947	7.11	26.542052707633
3	8082	7.21	26.55516406347
3	8217	7.31	26.568000644834
3	8352	7.41	26.580578577816
3	8487	7.51	26.592913524771
3	8622	7.61	26.605020542742
3	8757	7.71	26.616913975171
3	8892	7.81	26.628607372819
3	9027	7.91	26.640053671217
3	9170	8.01	26.64765396658
3	9305	8.11	26.646642554834
3	9440	8.21	26.633610495317
3	9575	8.31	26.606489260326
3	9710	8.41	26.564417393695
3	9845	8.51	26.507600284127
3	9980	8.61	26.437165840535
3	10115	8.71	26.355018589589
3	10250	8.81	26.263694464029
3	10385	8.91	26.166218313193
3	10528	9.01	26.065965943291
3	10663	9.11	25.966532282982
3	10798	9.21	25.871607068276
3	10933	9.31	25.784859248459
3	11068	9.41	25.709831130263
3	11203	9.51	25.649843099915
3	11338	9.61	25.607909591046
3	11473	9.71	25.586666800093
3	11608	9.81	25.588281468146
3	11743	9.91	25.612655469768
3	11886	10.01	25.656652450272
3	12021	10.11	25.716330434626
3	12156	10.21	25.788185195557
3	12291	10.31	25.86912823164
3	12426	10.41	25.956462230221
3	12561	10.51	26.047854817768
3	12696	10.61	26.141311288524
3	12831	10.71	26.235146899359
3	12966	10.81	26.327959224442
3	13101	10.91	26.418600977847
3	13244	11.01	26.506153635123
3	13379	11.11	26.589902116012
3	13514	11.21	26.669310729487
3	13649	11.31	26.744000528687
3	13784	11.41	26.813728176678
3	13919	11.51	26.878366383814
3	14054	11.61	26.937885943241
3	14189	11.71	26.99233936239
3	14324	11.81	27.04184606449
3	14459	11.91	27.086579114836
4	248	1.11	74.217110612267
4	372	1.21	76.991368401136
4	495	1.31	79.760192296825
4	619	1.41	82.521670317728
4	743	1.51	85.274358917552
4	866	1.61	88.017224218169
4	989	1.71	90.749587122548
4	1113	1.81	93.47107247303
4	1236	1.91	96.181562330638
4	1370	2.01	98.881153375822
4	1493	2.11	101.57011836853
4	1616	2.21	104.24887155476
4	1739	2.31	106.91793786644
4	1862	2.41	109.57792573012
4	1985	2.51	112.22950327731
4	2108	2.61	114.87337773305
4	2231	2.71	117.5102777497
4	2354	2.81	120.14093844818
4	2477	2.91	122.76608892888
4	2608	3.01	125.38644201761
4	2731	3.11	128.00268601864
4	2854	3.21	130.61547825527
4	2977	3.31	133.22544018939
4	3100	3.41	135.83315392291
4	3223	3.51	138.43915989709
4	3346	3.61	141.04395561929
4	3469	3.71	143.64799525997
4	3592	3.81	146.25168997705
4	3715	3.91	148.85540883781
4	3846	4.01	151.45948022191
4	3969	4.11	154.06419360193
4	4092	4.21	156.66980160952
4	4215	4.31	159.27652230706
4	4338	4.41	161.88454159508
4	4461	4.51	164.49401569581
4	4584	4.61	167.10507366213
4	4707	4.71	169.71781986959
4	4830	4.81	172.33233645671
4	4953	4.91	174.9486856854
4	5096	5.01	177.56691219957
4	5231	5.11	180.18704516502
4	5366	5.21	182.80910027881
4	5501	5.31	185.43308163976
4	5636	5.41	188.05898347583
4	5771	5.51	190.68679172664
4	5906	5.61	193.31648548195
4	6041	5.71	195.94803827918
4	6176	5.81	198.58141926426
4	6311	5.91	201.21659422192
4	6454	6.01	203.85352648191
4	6589	6.11	206.49217770897
4	6724	6.21	209.13250858425
4	6859	6.31	211.77447938676
4	6994	6.41	214.4180504828
4	7129	6.51	217.06318273214
4	7264	6.61	219.70983781865
4	7399	6.71	222.35797851372
4	7534	6.81	225.00756887959
4	7669	6.91	227.65857442015
4	7812	7.01	230.31096218564
4	7947	7.11	232.96470083779
4	8082	7.21	235.61976068099
4	8217	7.31	238.27611366491
4	8352	7.41	240.93373336346
4	8487	7.51	243.59259493431
4	8622	7.61	246.25267506306
4	8757	7.71	248.91395189538
4	8892	7.81	251.57640496031
4	9027	7.91	254.24001389193
4	9170	8.01	256.90456183207
4	9305	8.11	259.56934443419
4	9440	8.21	262.23326742914
4	9575	8.31	264.89498383692
4	9710	8.41	267.55301940882
4	9845	8.51	270.20588426394
4	9980	8.61	272.85217021492
4	10115	8.71	275.49063353908
4	10250	8.81	278.12026318666
4	10385	8.91	280.74033462921
4	10528	9.01	283.35044973956
4	10663	9.11	285.95056326191
4	10798	9.21	288.54099657663
4	10933	9.31	291.12243959145
4	11068	9.41	293.6959416988
4	11203	9.51	296.262892829
4	11338	9.61	298.82499570194
4	11473	9.71	301.3842304359
4	11608	9.81	303.94281209096
4	11743	9.91	306.50304521837
4	11886	10.01	309.06702561814
4	12021	10.11	311.63645566576
4	12156	10.21	314.21267216178
4	12291	10.31	316.79668869959
4	12426	10.41	319.38923566031
4	12561	10.51	321.99079763659
4	12696	10.61	324.60164815973
4	12831	10.71	327.221881667
4	12966	10.81	329.85144269872
4	13101	10.91	332.49015235805
4	13244	11.01	335.13773210267
4	13379	11.11	337.79382496559
4	13514	11.21	340.45801432494
4	13649	11.31	343.12984035881
4	13784	11.41	345.80881433319
4	13919	11.51	348.49443087829
4	14054	11.61	351.1861784123
4	14189	11.71	353.88354787269
4	14324	11.81	356.58603991291
4	14459	11.91	359.29317071882
5	248	1.11	36.55
5	372	1.21	36.55
5	495	1.31	36.55
5	619	1.41	36.55
5	743	1.51	36.55
5	866	1.61	36.55
5	989	1.71	36.55
5	1113	1.81	36.55
5	1236	1.91	36.55
5	1370	2.01	36.55
5	1493	2.11	36.55
5	1616	2.21	36.55
5	1739	2.31	36.55
5	1862	2.41	36.55
5	1985	2.51	36.55
5	2108	2.61	36.55
5	2231	2.71	36.55
5	2354	2.81	36.55
5	2477	2.91	36.55
5	2608	3.01	36.55
5	2731	3.11	36.55
5	2854	3.21	36.55
5	2977	3.31	36.55
5	3100	3.41	36.55
5	3223	3.51	36.55
5	3346	3.61	36.55
5	3469	3.71	36.55
5	3592	3.81	36.55
5	3715	3.91	36.55
5	3846	4.01	36.55
5	3969	4.11	36.55
5	4092	4.21	36.55
5	4215	4.31	36.55
5	4338	4.41	36.55
5	4461	4.51	36.55
5	4584	4.61	36.55
5	4707	4.71	36.55
5	4830	4.81	36.55
5	4953	4.91	36.55
5	5096	5.01	36.55
5	5231	5.11	36.55
5	5366	5.21	36.55
5	5501	5.31	36.55
5	5636	5.41	36.55
5	5771	5.51	36.55
5	5906	5.61	36.55
5	6041	5.71	36.55
5	6176	5.81	36.55
5	6311	5.91	36.55
5	6454	6.01	36.55
5	6589	6.11	36.55
5	6724	6.21	36.55
5	6859	6.31	36.55
5	6994	6.41	36.55
5	7129	6.51	36.55
5	7264	6.61	36.55
5	7399	6.71	36.55
5	7534	6.81	36.55
5	7669	6.91	36.55
5	7812	7.01	36.55
5	7947	7.11	36.55
5	8082	7.21	36.55
5	8217	7.31	36.55
5	8352	7.41	36.55
5	8487	7.51	36.55
5	8622	7.61	36.55
5	8757	7.71	36.55
5	8892	7.81	36.55
5	9027	7.91	36.55
5	9170	8.01	36.55
5	9305	8.11	36.55
5	9440	8.21	36.55
5	9575	8.31	36.55
5	9710	8.41	36.55
5	9845	8.51	36.55
5	9980	8.61	36.55
5	10115	8.71	36.55
5	10250	8.81	36.55
5	10385	8.91	36.55
5	10528	9.01	36.55
5	10663	9.11	36.55
5	10798	9.21	36.55
5	10933	9.31	36.55
5	11068	9.41	36.55
5	11203	9.51	36.55
5	11338	9.61	36.55
5	11473	9.71	36.55
5	11608	9.81	36.55
5	11743	9.91	36.55
5	11886	10.01	36.55
5	12021	10.11	36.55
5	12156	10.21	36.55
5	12291	10.31	36.55
5	12426	10.41	36.55
5	12561	10.51	36.55
5	12696	10.61	36.55
5	12831	10.71	36.55
5	12966	10.81	36.55
5	13101	10.91	36.55
5	13244	11.01	36.55
5	13379	11.11	36.55
5	13514	11.21	36.55
5	13649	11.31	36.55
5	13784	11.41	36.55
5	13919	11.51	36.55
5	14054	11.61	36.55
5	14189	11.71	36.55
5	14324	11.81	36.55
5	14459	11.91	36.55
6	248	1.11	-0.24772452059949
6	372	1.21	-0.50291778707319
6	495	1.31	-0.70376502035963
6	619	1.41	-0.85657482421233
6	743	1.51	-0.96730073474092
6	866	1.61	-1.0415120118477
6	989	1.71	-1.0843752541479
6	1113	1.81	-1.1006452597236
6	1236	1.91	-1.0946636856499
6	1370	2.01	-1.07036418934
6	1493	2.11	-1.031282862494
6	1616	2.21	-0.98057289224016
6	1739	2.31	-0.92102250277577
6	1862	2.41	-0.8550753435113
6	1985	2.51	-0.78485259567707
6	2108	2.61	-0.71217616820789
6	2231	2.71	-0.63859244510454
6	2354	2.81	-0.56539613035014
6	2477	2.91	-0.49365381280246
6	2608	3.01	-0.42422694249389
6	2731	3.11	-0.35779397154165
6	2854	3.21	-0.29487146787837
6	2977	3.31	-0.23583405839993
6	3100	3.41	-0.18093310047007
6	3223	3.51	-0.1303140172574
6	3346	3.61	-0.084032263694667
6	3469	3.71	-0.042067916244548
6	3592	3.81	-0.0043389016635587
6	3715	3.91	0.029287102055164
6	3846	4.01	0.058982044982514
6	3969	4.11	0.084948105993021
6	4092	4.21	0.10740944774632
6	4215	4.31	0.1266050527672
6	4338	4.41	0.14278256365827
6	4461	4.51	0.15619304848613
6	4584	4.61	0.16708661191878
6	4707	4.71	0.17570877351041
6	4830	4.81	0.18229753639609
6	4953	4.91	0.18708107238083
6	5096	5.01	0.19027595275141
6	5231	5.11	0.19208585802168
6	5366	5.21	0.1927007040031
6	5501	5.31	0.19229612604867
6	5636	5.41	0.19103326785519
6	5771	5.51	0.18905882579823
6	5906	5.61	0.18650530431081
6	6041	5.71	0.18349144226271
6	6176	5.81	0.18012277455632
6	6311	5.91	0.1764922972594
6	6454	6.01	0.17268120845841
6	6589	6.11	0.16875970063381
6	6724	6.21	0.16478778373035
6	6859	6.31	0.16081612121361
6	6994	6.41	0.15688686421775
6	7129	6.51	0.15303447150607
6	7264	6.61	0.14928650525086
6	7399	6.71	0.14566439475381
6	7534	6.81	0.14218416203455
6	7669	6.91	0.13885710484765
6	7812	7.01	0.13569043409269
6	7947	7.11	0.13268786379506
6	8082	7.21	0.12985015285487
6	8217	7.31	0.12717559864157
6	8352	7.41	0.1246604832172
6	8487	7.51	0.12229947355955
6	8622	7.61	0.12008597762225
6	8757	7.71	0.11801245840424
6	8892	7.81	0.1160707084825
6	9027	7.91	0.1082752008756
6	9170	8.01	0.046306723950096
6	9305	8.11	-0.057643578622546
6	9440	8.21	-0.18947102055087
6	9575	8.31	-0.33635438833066
6	9710	8.41	-0.48684125031002
6	9845	8.51	-0.63090386960063
6	9980	8.61	-0.75996847864133
6	10115	8.71	-0.86692051427271
6	10250	8.81	-0.94608826135776
6	10385	8.91	-0.9932072133978
6	10528	9.01	-1.0053673320328
6	10663	9.11	-0.98094527470174
6	10798	9.21	-0.91952356095284
6	10933	9.31	-0.82179856221565
6	11068	9.41	-0.68947912586417
6	11203	9.51	-0.52517758042043
6	11338	9.61	-0.3322948125291
6	11473	9.71	-0.1149010557004
6	11608	9.81	0.11928389535178
6	11743	9.91	0.33893754459093
6	11886	10.01	0.51668876246787
6	12021	10.11	0.65702377801564
6	12156	10.21	0.76422587860741
6	12291	10.31	0.84234538863086
6	12426	10.41	0.89517832125203
6	12561	10.51	0.92625253916623
6	12696	10.61	0.93882034622226
6	12831	10.71	0.93585651934625
6	12966	10.81	0.92006087770145
6	13101	10.91	0.893864572231
6	13244	11.01	0.85943936247084
6	13379	11.11	0.81870922803127
6	13514	11.21	0.7733637387112
6	13649	11.31	0.72487267937156
6	13784	11.41	0.67450149309849
6	13919	11.51	0.62332716864937
6	14054	11.61	0.57225425557341
6	14189	11.71	0.5220307427706
6	14324	11.81	0.47326358360493
6	14459	11.91	0.42643369324722
7	248	1.11	-1.6857677029093
7	372	1.21	-1.6512572118417
7	495	1.31	-1.5948457041372
7	619	1.41	-1.5211701160241
7	743	1.51	-1.4343332785548
7	866	1.61	-1.3379334144653
7	989	1.71	-1.2350962134196
7	1113	1.81	-1.1285085581389
7	1236	1.91	-1.0204531079721
7	1370	2.01	-0.91284306953465
7	1493	2.11	-0.80725659616162
7	1616	2.21	-0.70497035925985
7	1739	2.31	-0.60699192552098
7	1862	2.41	-0.5140906547922
7	1985	2.51	-0.42682690469109
7	2108	2.61	-0.345579390354
7	2231	2.71	-0.27057060162185
7	2354	2.81	-0.20189022611493
7	2477	2.91	-0.13951656566489
7	2608	3.01	-0.083335966085723
7	2731	3.11	-0.033160306904399
7	2854	3.21	0.011257380964724
7	2977	3.31	0.05020908494436
7	3100	3.41	0.084019670728355
7	3223	3.51	0.11303632632272
7	3346	3.61	0.13761947831272
7	3469	3.71	0.15813506537931
7	3592	3.81	0.17494805326461
7	3715	3.91	0.18841707645487
7	3846	4.01	0.19889009447215
7	3969	4.11	0.20670095453463
7	4092	4.21	0.21216675718935
7	4215	4.31	0.21558592709916
7	4338	4.41	0.21723689726702
7	4461	4.51	0.21737732142423
7	4584	4.61	0.21624373593858
7	4707	4.71	0.21405159927996
7	4830	4.81	0.21099564370769
7	4953	4.91	0.2072504803212
7	5096	5.01	0.20297140487414
7	5231	5.11	0.19829535773314
7	5366	5.21	0.19334199702322
7	5501	5.31	0.18821484931223
7	5636	5.41	0.18300250712534
7	5771	5.51	0.17777984713803
7	5906	5.61	0.17260924706669
7	6041	5.71	0.16754178306537
7	6176	5.81	0.16261839285029
7	6311	5.91	0.15787099282802
7	6454	6.01	0.15332354020784
7	6589	6.11	0.14899303345946
7	6724	6.21	0.14489044654739
7	6859	6.31	0.14102159415963
7	6994	6.41	0.13738792666916
7	7129	6.51	0.13398725484666
7	7264	6.61	0.13081440540274
7	7399	6.71	0.12786180929978
7	7534	6.81	0.125120025458
7	7669	6.91	0.12257820300848
7	7812	7.01	0.12022448563486
7	7947	7.11	0.11804636181472
7	8082	7.21	0.11603096493659
7	8217	7.31	0.11416532734557
7	8352	7.41	0.11243659237291
7	8487	7.51	0.11083218834493
7	8622	7.61	0.10933996845734
7	8757	7.71	0.1079483202509
7	8892	7.81	0.10664624824417
7	9027	7.91	-0.19939779171324
7	9170	8.01	-0.50214993348597
7	9305	8.11	-0.77096095153277
7	9440	8.21	-0.99804199101115
7	9575	8.31	-1.1774303750486
7	9710	8.41	-1.3049165074929
7	9845	8.51	-1.3779552014207
7	9980	8.61	-1.3955634440126
7	10115	8.71	-1.3582064848104
7	10250	8.81	-1.2676740367214
7	10385	8.91	-1.1269483040178
7	10528	9.01	-0.94006549520918
7	10663	9.11	-0.71197243702318
7	10798	9.21	-0.44837987472416
7	10933	9.31	-0.15561401956953
7	11068	9.41	0.15953211756526
7	11203	9.51	0.48994609013529
7	11338	9.61	0.82834058832414
7	11473	9.71	1.1673937652259
7	11608	9.81	1.3416757158689
7	11743	9.91	1.3391460996788
7	11886	10.01	1.3176310461076
7	12021	10.11	1.2807031687411
7	12156	10.21	1.2315558166228
7	12291	10.31	1.1730197804939
7	12426	10.41	1.1075826210056
7	12561	10.51	1.0374098768309
7	12696	10.61	0.96436750939306
7	12831	10.71	0.89004503252053
7	12966	10.81	0.81577885956595
7	13101	10.91	0.74267547739395
7	13244	11.01	0.67163412623473
7	13379	11.11	0.60336872692053
7	13514	11.21	0.53842885273292
7	13649	11.31	0.4772195923148
7	13784	11.41	0.42002019321086
7	13919	11.51	0.3670014129891
7	14054	11.61	0.31824153697923
7	14189	11.71	0.27374104886555
7	14324	11.81	0.23343596311804
7	14459	11.91	0.19720984695507
8	1338	2	0
8	2578	3	0
8	3816	4	0
8	5066	5	0
8	6412	6	0
8	7770	7	0
8	9128	8	0
8	10486	9	0
8	11844	10	0
8	13202	11	0
9	1338	2	0.004473
9	2578	3	0.00497
9	3816	4	0.00497
9	5066	5	0.00497
9	6412	6	0.00497
9	7770	7	0.00497
9	9128	8	0.00497
9	10486	9	0.00497
9	11844	10	0.00497
9	13202	11	0.00497
10	1338	2	0
10	2578	3	0
10	3816	4	0
10	5066	5	0
10	6412	6	0
10	7770	7	0
10	9128	8	0
10	10486	9	0
10	11844	10	0
10	13202	11	0
22	249	1.11	14.999704490557
22	373	1.21	14.996970083183
22	496	1.31	14.989251320287
22	620	1.41	14.97453452321
22	744	1.51	14.951286681037
22	867	1.61	14.918395939266
22	990	1.71	14.87511592231
22	1114	1.81	14.821014074986
22	1237	1.91	14.755924115593
22	1371	2.01	14.679902615044
22	1494	2.11	14.593189651643
22	1617	2.21	14.496173438029
22	1740	2.31	14.389358774475
22	1863	2.41	14.273339149787
22	1986	2.51	14.148772286554
22	2109	2.61	14.01635891017
22	2232	2.71	13.876824510139
22	2355	2.81	13.730903856544
22	2478	2.91	13.579328033556
22	2609	3.01	13.422813754577
22	2732	3.11	13.262054729467
22	2855	3.21	13.097714862599
22	2978	3.31	12.930423070722
22	3101	3.41	12.760769521281
22	3224	3.51	12.589303104547
22	3347	3.61	12.416529966211
22	3470	3.71	12.242912940795
22	3593	3.81	12.06887173998
22	3716	3.91	11.89478376352
22	3847	4.01	11.720985413701
22	3970	4.11	11.547773807095
22	4093	4.21	11.375408789543
22	4216	4.31	11.204115171879
22	4339	4.41	11.034085114677
22	4462	4.51	10.865480600359
22	4585	4.61	10.698435940261
22	4708	4.71	10.533060272691
22	4831	4.81	10.369440015715
22	4954	4.91	10.207641245277
22	5097	5.01	10.04771197546
22	5232	5.11	9.8896843231424
22	5367	5.21	9.7335765440773
22	5502	5.31	9.5793949316324
22	5637	5.41	9.4271355729698
22	5772	5.51	9.2767859605213
22	5907	5.61	9.1283264591644
22	6042	5.71	8.9817316316203
22	6177	5.81	8.836971426307
22	6312	5.91	8.6940122332381
22	6455	6.01	8.5528178145959
22	6590	6.11	8.4133501173669
22	6725	6.21	8.2755699759462
22	6860	6.31	8.1394377129272
22	6995	6.41	8.0049136464253
22	7130	6.51	7.8719585122657
22	7265	6.61	7.7405338092284
22	7400	6.71	7.6106020752996
22	7535	6.81	7.4821271025641
22	7670	6.91	7.3550740979888
22	7813	7.01	7.2294097969263
22	7948	7.11	7.1051025357103
22	8083	7.21	6.9821222892436
22	8218	7.31	6.8604406789936
22	8353	7.41	6.740030956334
22	8488	7.51	6.620867965696
22	8623	7.61	6.5029280915317
22	8758	7.71	6.386189192652
22	8893	7.81	6.270630527084
22	9028	7.91	6.1562326701917
22	9171	8.01	6.0428507418761
22	9306	8.11	5.9298757096775
22	9441	8.21	5.8162814832721
22	9576	8.31	5.7007624532016
22	9711	8.41	5.5818615998848
22	9846	8.51	5.4580849346472
22	9981	8.61	5.32800171195
22	10116	8.71	5.19033011858
22	10251	8.81	5.0440083861257
22	10386	8.91	4.8882514891394
22	10529	9.01	4.7225937843419
22	10664	9.11	4.5469181173501
22	10799	9.21	4.361472073808
22	10934	9.31	4.1668721824765
22	11069	9.41	3.9640969896447
22	11204	9.51	3.7544700178983
22	11339	9.61	3.5396336984744
22	11474	9.71	3.3215154256972
22	11609	9.81	3.1022869248486
22	11744	9.91	2.8842547096758
22	11887	10.01	2.6695773072915
22	12022	10.11	2.4600359326709
22	12157	10.21	2.2570374709258
22	12292	10.31	2.0616572854632
22	12427	10.41	1.8746797036653
22	12562	10.51	1.6966359656487
22	12697	10.61	1.5278394968203
22	12832	10.71	1.3684184293306
22	12967	10.81	1.2183453519958
22	13102	10.91	1.0774643137091
22	13245	11.01	0.94551514263088
22	13380	11.11	0.82215517338693
22	13515	11.21	0.7069784979164
22	13650	11.31	0.59953287325345
22	13785	11.41	0.4993344321316
22	13920	11.51	0.4058803505352
22	14055	11.61	0.31865963081054
22	14190	11.71	0.23716216026992
22	14325	11.81	0.16088620389644
22	14460	11.91	0.089344486255698
23	249	1.11	-0.0092700445431113
23	373	1.21	-0.04600142717133
23	496	1.31	-0.10575315302479
23	620	1.41	-0.18337728340697
23	744	1.51	-0.27434105193008
23	867	1.61	-0.37468994722495
23	990	1.71	-0.48100837540281
23	1114	1.81	-0.59037891254965
23	1237	1.91	-0.70034100563966
23	1371	2.01	-0.80884984141651
23	1494	2.11	-0.91423597686963
23	1617	2.21	-1.0151662116203
23	1740	2.31	-1.1106060813803
23	1863	2.41	-1.1997842620998
23	1986	2.51	-1.282159095848
23	2109	2.61	-1.3573873811749
23	2232	2.71	-1.4252955119565
23	2355	2.81	-1.4858529987858
23	2478	2.91	-1.5391483650726
23	2609	3.01	-1.5853673754272
23	2732	3.11	-1.6247735258795
23	2855	3.21	-1.6576907033404
23	2978	3.31	-1.6844879047581
23	3101	3.41	-1.7055658940408
23	3224	3.51	-1.7213456663979
23	3347	3.61	-1.73225858475
23	3470	3.71	-1.7387380507663
23	3593	3.81	-1.7412125734278
23	3716	3.91	-1.7401001003763
23	3847	4.01	-1.7358034813039
23	3970	4.11	-1.7287069379238
23	4093	4.21	-1.7191734213439
23	4216	4.31	-1.7075427446701
23	4339	4.41	-1.6941303861712
23	4462	4.51	-1.6792268661327
23	4585	4.61	-1.6630976084607
23	4708	4.71	-1.6459832060078
23	4831	4.81	-1.6281000163789
23	4954	4.91	-1.6096410225328
23	5097	5.01	-1.5907768997488
23	5232	5.11	-1.5716572374265
23	5367	5.21	-1.5524118706779
23	5502	5.31	-1.5331522827335
23	5637	5.41	-1.5139730447956
23	5772	5.51	-1.4949532651263
23	5907	5.61	-1.4761580238572
23	6042	5.71	-1.4576397742537
23	6177	5.81	-1.4394396949774
23	6312	5.91	-1.4215889812867
23	6455	6.01	-1.4041100661006
23	6590	6.11	-1.3870177644747
23	6725	6.21	-1.3703203372992
23	6860	6.31	-1.3540204719714
23	6995	6.41	-1.3381161794368
23	7130	6.51	-1.3226016083627
23	7265	6.61	-1.3074677783301
23	7400	6.71	-1.2927032348333
23	7535	6.81	-1.27829462958
23	7670	6.91	-1.2642272301185
23	7813	7.01	-1.2504853631947
23	7948	7.11	-1.2370527964932
23	8083	7.21	-1.2239130635464
23	8218	7.31	-1.2110497366408
23	8353	7.41	-1.198446652504
23	8488	7.51	-1.1860880954528
23	8623	7.61	-1.1739589425229
23	8758	7.71	-1.1620447749017
23	8893	7.81	-1.1503319597545
23	9028	7.91	-1.1388077062798
23	9171	8.01	-1.1305877261481
23	9306	8.11	-1.1305596348685
23	9441	8.21	-1.1422734199654
23	9576	8.31	-1.1679258212786
23	9711	8.41	-1.2084928192899
23	9846	8.51	-1.2638693026652
23	9981	8.61	-1.3330131001665
23	10116	8.71	-1.4140908307564
23	10251	8.81	-1.5046232788454
23	10386	8.91	-1.6016282401613
23	10529	9.01	-1.7017590088768
23	10664	9.11	-1.8014368897596
23	10799	9.21	-1.896976321603
23	10934	9.31	-1.9847013914071
23	11069	9.41	-2.0610527039666
23	11204	9.51	-2.1226837497693
23	11339	9.61	-2.1665460863172
23	11474	9.71	-2.1899628148383
23	11609	9.81	-2.1906899962957
23	11744	9.91	-2.1685125311658
23	11887	10.01	-2.126293062841
23	12022	10.11	-2.0680184286429
23	12157	10.21	-1.9972356887175
23	12292	10.31	-1.9170738477344
23	12427	10.41	-1.8302681784794
23	12562	10.51	-1.7391863331121
23	12697	10.61	-1.6458555404262
23	12832	10.71	-1.5519902913226
23	12967	10.81	-1.4590200098235
23	13102	10.91	-1.3681162933637
23	13245	11.01	-1.2802193839896
23	13380	11.11	-1.1960636017562
23	13515	11.21	-1.1162015333882
23	13650	11.31	-1.0410268235953
23	13785	11.41	-0.97079546374092
23	13920	11.51	-0.90564551336078
23	14055	11.61	-0.84561522480337
23	14190	11.71	-0.79065957052615
23	14325	11.81	-0.74066519683475
23	14460	11.91	-0.69546384758508
24	249	1.11	1
24	373	1.21	1
24	496	1.31	1
24	620	1.41	1
24	744	1.51	1
24	867	1.61	1
24	990	1.71	1
24	1114	1.81	1
24	1237	1.91	1
24	1371	2.01	1
24	1494	2.11	1
24	1617	2.21	1
24	1740	2.31	1
24	1863	2.41	1
24	1986	2.51	1
24	2109	2.61	1
24	2232	2.71	1
24	2355	2.81	1
24	2478	2.91	1
24	2609	3.01	1
24	2732	3.11	1
24	2855	3.21	1
24	2978	3.31	1
24	3101	3.41	1
24	3224	3.51	1
24	3347	3.61	1
24	3470	3.71	1
24	3593	3.81	1
24	3716	3.91	1
24	3847	4.01	1
24	3970	4.11	1
24	4093	4.21	1
24	4216	4.31	1
24	4339	4.41	1
24	4462	4.51	1
24	4585	4.61	1
24	4708	4.71	1
24	4831	4.81	1
24	4954	4.91	1
24	5097	5.01	1
24	5232	5.11	1
24	5367	5.21	1
24	5502	5.31	1
24	5637	5.41	1
24	5772	5.51	1
24	5907	5.61	1
24	6042	5.71	1
24	6177	5.81	1
24	6312	5.91	1
24	6455	6.01	1
24	6590	6.11	1
24	6725	6.21	1
24	6860	6.31	1
24	6995	6.41	1
24	7130	6.51	1
24	7265	6.61	1
24	7400	6.71	1
24	7535	6.81	1
24	7670	6.91	1
24	7813	7.01	1
24	7948	7.11	1
24	8083	7.21	1
24	8218	7.31	1
24	8353	7.41	1
24	8488	7.51	1
24	8623	7.61	1
24	8758	7.71	1
24	8893	7.81	1
24	9028	7.91	1
24	9171	8.01	1
24	9306	8.11	1
24	9441	8.21	1
24	9576	8.31	1
24	9711	8.41	1
24	9846	8.51	1
24	9981	8.61	1
24	10116	8.71	1
24	10251	8.81	1
24	10386	8.91	1
24	10529	9.01	1
24	10664	9.11	1
24	10799	9.21	1
24	10934	9.31	1
24	11069	9.41	1
24	11204	9.51	1
24	11339	9.61	1
24	11474	9.71	1
24	11609	9.81	1
24	11744	9.91	1
24	11887	10.01	1
24	12022	10.11	1
24	12157	10.21	1
24	12292	10.31	1
24	12427	10.41	1
24	12562	10.51	1
24	12697	10.61	1
24	12832	10.71	1
24	12967	10.81	1
24	13102	10.91	1
24	13245	11.01	1
24	13380	11.11	1
24	13515	11.21	1
24	13650	11.31	1
24	13785	11.41	1
24	13920	11.51	1
24	14055	11.61	1
24	14190	11.71	1
24	14325	11.81	1
24	14460	11.91	1
25	249	1.11	27.777778625488
25	373	1.21	27.777778625488
25	496	1.31	27.777778625488
25	620	1.41	27.777778625488
25	744	1.51	27.777778625488
25	867	1.61	27.777778625488
25	990	1.71	27.777778625488
25	1114	1.81	27.777778625488
25	1237	1.91	27.777778625488
25	1371	2.01	27.777778625488
25	1494	2.11	27.777778625488
25	1617	2.21	27.777778625488
25	1740	2.31	27.777778625488
25	1863	2.41	27.777778625488
25	1986	2.51	27.777778625488
25	2109	2.61	27.777778625488
25	2232	2.71	27.777778625488
25	2355	2.81	27.777778625488
25	2478	2.91	27.777778625488
25	2609	3.01	27.777778625488
25	2732	3.11	27.777778625488
25	2855	3.21	27.777778625488
25	2978	3.31	27.777778625488
25	3101	3.41	27.777778625488
25	3224	3.51	27.777778625488
25	3347	3.61	27.777778625488
25	3470	3.71	27.777778625488
25	3593	3.81	27.777778625488
25	3716	3.91	27.777778625488
25	3847	4.01	27.777778625488
25	3970	4.11	27.777778625488
25	4093	4.21	27.777778625488
25	4216	4.31	27.777778625488
25	4339	4.41	27.777778625488
25	4462	4.51	27.777778625488
25	4585	4.61	27.777778625488
25	4708	4.71	27.777778625488
25	4831	4.81	27.777778625488
25	4954	4.91	27.777778625488
25	5097	5.01	27.777778625488
25	5232	5.11	27.777778625488
25	5367	5.21	27.777778625488
25	5502	5.31	27.777778625488
25	5637	5.41	27.777778625488
25	5772	5.51	27.777778625488
25	5907	5.61	27.777778625488
25	6042	5.71	27.777778625488
25	6177	5.81	27.777778625488
25	6312	5.91	27.777778625488
25	6455	6.01	27.777778625488
25	6590	6.11	27.777778625488
25	6725	6.21	27.777778625488
25	6860	6.31	27.777778625488
25	6995	6.41	27.777778625488
25	7130	6.51	27.777778625488
25	7265	6.61	27.777778625488
25	7400	6.71	27.777778625488
25	7535	6.81	27.777778625488
25	7670	6.91	27.777778625488
25	7813	7.01	27.777778625488
25	7948	7.11	27.777778625488
25	8083	7.21	27.777778625488
25	8218	7.31	27.777778625488
25	8353	7.41	27.777778625488
25	8488	7.51	27.777778625488
25	8623	7.61	27.777778625488
25	8758	7.71	27.777778625488
25	8893	7.81	27.777778625488
25	9028	7.91	27.777778625488
25	9171	8.01	27.777778625488
25	9306	8.11	27.777778625488
25	9441	8.21	27.777778625488
25	9576	8.31	27.777778625488
25	9711	8.41	27.777778625488
25	9846	8.51	27.777778625488
25	9981	8.61	27.777778625488
25	10116	8.71	27.777778625488
25	10251	8.81	27.777778625488
25	10386	8.91	27.777778625488
25	10529	9.01	27.777778625488
25	10664	9.11	27.777778625488
25	10799	9.21	27.777778625488
25	10934	9.31	27.777778625488
25	11069	9.41	27.777778625488
25	11204	9.51	27.777778625488
25	11339	9.61	27.777778625488
25	11474	9.71	27.777778625488
25	11609	9.81	27.777778625488
25	11744	9.91	27.777778625488
25	11887	10.01	27.777778625488
25	12022	10.11	27.777778625488
25	12157	10.21	27.777778625488
25	12292	10.31	27.777778625488
25	12427	10.41	27.777778625488
25	12562	10.51	27.777778625488
25	12697	10.61	27.777778625488
25	12832	10.71	27.777778625488
25	12967	10.81	27.777778625488
25	13102	10.91	27.777778625488
25	13245	11.01	27.777778625488
25	13380	11.11	27.777778625488
25	13515	11.21	27.777778625488
25	13650	11.31	27.777778625488
25	13785	11.41	27.777778625488
25	13920	11.51	27.777778625488
25	14055	11.61	27.777778625488
25	14190	11.71	27.777778625488
25	14325	11.81	27.777778625488
25	14460	11.91	27.777778625488
26	249	1.11	55.217641067505
26	373	1.21	57.995418930054
26	496	1.31	60.773196792603
26	620	1.41	63.550974655151
26	744	1.51	66.3287525177
26	867	1.61	69.106530380249
26	990	1.71	71.884308242798
26	1114	1.81	74.662086105347
26	1237	1.91	77.439863967895
26	1371	2.01	80.217641830444
26	1494	2.11	82.995419692993
26	1617	2.21	85.773197555542
26	1740	2.31	88.550975418091
26	1863	2.41	91.328753280639
26	1986	2.51	94.106531143188
26	2109	2.61	96.884309005737
26	2232	2.71	99.662086868286
26	2355	2.81	102.43986473083
26	2478	2.91	105.21764259338
26	2609	3.01	107.99542045593
26	2732	3.11	110.77319831848
26	2855	3.21	113.55097618103
26	2978	3.31	116.32875404358
26	3101	3.41	119.10653190613
26	3224	3.51	121.88430976868
26	3347	3.61	124.66208763123
26	3470	3.71	127.43986549377
26	3593	3.81	130.21764335632
26	3716	3.91	132.99542121887
26	3847	4.01	135.77319908142
26	3970	4.11	138.55097694397
26	4093	4.21	141.32875480652
26	4216	4.31	144.10653266907
26	4339	4.41	146.88431053162
26	4462	4.51	149.66208839417
26	4585	4.61	152.43986625671
26	4708	4.71	155.21764411926
26	4831	4.81	157.99542198181
26	4954	4.91	160.77319984436
26	5097	5.01	163.55097770691
26	5232	5.11	166.32875556946
26	5367	5.21	169.10653343201
26	5502	5.31	171.88431129456
26	5637	5.41	174.66208915711
26	5772	5.51	177.43986701965
26	5907	5.61	180.2176448822
26	6042	5.71	182.99542274475
26	6177	5.81	185.7732006073
26	6312	5.91	188.55097846985
26	6455	6.01	191.3287563324
26	6590	6.11	194.10653419495
26	6725	6.21	196.8843120575
26	6860	6.31	199.66208992005
26	6995	6.41	202.43986778259
26	7130	6.51	205.21764564514
26	7265	6.61	207.99542350769
26	7400	6.71	210.77320137024
26	7535	6.81	213.55097923279
26	7670	6.91	216.32875709534
26	7813	7.01	219.10653495789
26	7948	7.11	221.88431282044
26	8083	7.21	224.66209068299
26	8218	7.31	227.43986854553
26	8353	7.41	230.21764640808
26	8488	7.51	232.99542427063
26	8623	7.61	235.77320213318
26	8758	7.71	238.55097999573
26	8893	7.81	241.32875785828
26	9028	7.91	244.10653572083
26	9171	8.01	246.88431358338
26	9306	8.11	249.66209144593
26	9441	8.21	252.43986930847
26	9576	8.31	255.21764717102
26	9711	8.41	257.99542503357
26	9846	8.51	260.77320289612
26	9981	8.61	263.55098075867
26	10116	8.71	266.32875862122
26	10251	8.81	269.10653648377
26	10386	8.91	271.88431434632
26	10529	9.01	274.66209220887
26	10664	9.11	277.43987007141
26	10799	9.21	280.21764793396
26	10934	9.31	282.99542579651
26	11069	9.41	285.77320365906
26	11204	9.51	288.55098152161
26	11339	9.61	291.32875938416
26	11474	9.71	294.10653724671
26	11609	9.81	296.88431510926
26	11744	9.91	299.6620929718
26	11887	10.01	302.43987083435
26	12022	10.11	305.2176486969
26	12157	10.21	307.99542655945
26	12292	10.31	310.773204422
26	12427	10.41	313.55098228455
26	12562	10.51	316.3287601471
26	12697	10.61	319.10653800965
26	12832	10.71	321.8843158722
26	12967	10.81	324.66209373474
26	13102	10.91	327.43987159729
26	13245	11.01	330.21764945984
26	13380	11.11	332.99542732239
26	13515	11.21	335.77320518494
26	13650	11.31	338.55098304749
26	13785	11.41	341.32876091004
26	13920	11.51	344.10653877259
26	14055	11.61	346.88431663514
26	14190	11.71	349.66209449768
26	14325	11.81	352.43987236023
26	14460	11.91	355.21765022278
27	249	1.11	36.55
27	373	1.21	36.55
27	496	1.31	36.55
27	620	1.41	36.55
27	744	1.51	36.55
27	867	1.61	36.55
27	990	1.71	36.55
27	1114	1.81	36.55
27	1237	1.91	36.55
27	1371	2.01	36.55
27	1494	2.11	36.55
27	1617	2.21	36.55
27	1740	2.31	36.55
27	1863	2.41	36.55
27	1986	2.51	36.55
27	2109	2.61	36.55
27	2232	2.71	36.55
27	2355	2.81	36.55
27	2478	2.91	36.55
27	2609	3.01	36.55
27	2732	3.11	36.55
27	2855	3.21	36.55
27	2978	3.31	36.55
27	3101	3.41	36.55
27	3224	3.51	36.55
27	3347	3.61	36.55
27	3470	3.71	36.55
27	3593	3.81	36.55
27	3716	3.91	36.55
27	3847	4.01	36.55
27	3970	4.11	36.55
27	4093	4.21	36.55
27	4216	4.31	36.55
27	4339	4.41	36.55
27	4462	4.51	36.55
27	4585	4.61	36.55
27	4708	4.71	36.55
27	4831	4.81	36.55
27	4954	4.91	36.55
27	5097	5.01	36.55
27	5232	5.11	36.55
27	5367	5.21	36.55
27	5502	5.31	36.55
27	5637	5.41	36.55
27	5772	5.51	36.55
27	5907	5.61	36.55
27	6042	5.71	36.55
27	6177	5.81	36.55
27	6312	5.91	36.55
27	6455	6.01	36.55
27	6590	6.11	36.55
27	6725	6.21	36.55
27	6860	6.31	36.55
27	6995	6.41	36.55
27	7130	6.51	36.55
27	7265	6.61	36.55
27	7400	6.71	36.55
27	7535	6.81	36.55
27	7670	6.91	36.55
27	7813	7.01	36.55
27	7948	7.11	36.55
27	8083	7.21	36.55
27	8218	7.31	36.55
27	8353	7.41	36.55
27	8488	7.51	36.55
27	8623	7.61	36.55
27	8758	7.71	36.55
27	8893	7.81	36.55
27	9028	7.91	36.55
27	9171	8.01	36.55
27	9306	8.11	36.55
27	9441	8.21	36.55
27	9576	8.31	36.55
27	9711	8.41	36.55
27	9846	8.51	36.55
27	9981	8.61	36.55
27	10116	8.71	36.55
27	10251	8.81	36.55
27	10386	8.91	36.55
27	10529	9.01	36.55
27	10664	9.11	36.55
27	10799	9.21	36.55
27	10934	9.31	36.55
27	11069	9.41	36.55
27	11204	9.51	36.55
27	11339	9.61	36.55
27	11474	9.71	36.55
27	11609	9.81	36.55
27	11744	9.91	36.55
27	11887	10.01	36.55
27	12022	10.11	36.55
27	12157	10.21	36.55
27	12292	10.31	36.55
27	12427	10.41	36.55
27	12562	10.51	36.55
27	12697	10.61	36.55
27	12832	10.71	36.55
27	12967	10.81	36.55
27	13102	10.91	36.55
27	13245	11.01	36.55
27	13380	11.11	36.55
27	13515	11.21	36.55
27	13650	11.31	36.55
27	13785	11.41	36.55
27	13920	11.51	36.55
27	14055	11.61	36.55
27	14190	11.71	36.55
27	14325	11.81	36.55
27	14460	11.91	36.55
28	249	1.11	0
28	373	1.21	0
28	496	1.31	0
28	620	1.41	0
28	744	1.51	0
28	867	1.61	0
28	990	1.71	0
28	1114	1.81	0
28	1237	1.91	0
28	1371	2.01	0
28	1494	2.11	0
28	1617	2.21	0
28	1740	2.31	0
28	1863	2.41	0
28	1986	2.51	0
28	2109	2.61	0
28	2232	2.71	0
28	2355	2.81	0
28	2478	2.91	0
28	2609	3.01	0
28	2732	3.11	0
28	2855	3.21	0
28	2978	3.31	0
28	3101	3.41	0
28	3224	3.51	0
28	3347	3.61	0
28	3470	3.71	0
28	3593	3.81	0
28	3716	3.91	0
28	3847	4.01	0
28	3970	4.11	0
28	4093	4.21	0
28	4216	4.31	0
28	4339	4.41	0
28	4462	4.51	0
28	4585	4.61	0
28	4708	4.71	0
28	4831	4.81	0
28	4954	4.91	0
28	5097	5.01	0
28	5232	5.11	0
28	5367	5.21	0
28	5502	5.31	0
28	5637	5.41	0
28	5772	5.51	0
28	5907	5.61	0
28	6042	5.71	0
28	6177	5.81	0
28	6312	5.91	0
28	6455	6.01	0
28	6590	6.11	0
28	6725	6.21	0
28	6860	6.31	0
28	6995	6.41	0
28	7130	6.51	0
28	7265	6.61	0
28	7400	6.71	0
28	7535	6.81	0
28	7670	6.91	0
28	7813	7.01	0
28	7948	7.11	0
28	8083	7.21	0
28	8218	7.31	0
28	8353	7.41	0
28	8488	7.51	0
28	8623	7.61	0
28	8758	7.71	0
28	8893	7.81	0
28	9028	7.91	0
28	9171	8.01	0
28	9306	8.11	0
28	9441	8.21	0
28	9576	8.31	0
28	9711	8.41	0
28	9846	8.51	0
28	9981	8.61	0
28	10116	8.71	0
28	10251	8.81	0
28	10386	8.91	0
28	10529	9.01	0
28	10664	9.11	0
28	10799	9.21	0
28	10934	9.31	0
28	11069	9.41	0
28	11204	9.51	0
28	11339	9.61	0
28	11474	9.71	0
28	11609	9.81	0
28	11744	9.91	0
28	11887	10.01	0
28	12022	10.11	0
28	12157	10.21	0
28	12292	10.31	0
28	12427	10.41	0
28	12562	10.51	0
28	12697	10.61	0
28	12832	10.71	0
28	12967	10.81	0
28	13102	10.91	0
28	13245	11.01	0
28	13380	11.11	0
28	13515	11.21	0
28	13650	11.31	0
28	13785	11.41	0
28	13920	11.51	0
28	14055	11.61	0
28	14190	11.71	0
28	14325	11.81	0
28	14460	11.91	0
29	249	1.11	0
29	373	1.21	0
29	496	1.31	0
29	620	1.41	0
29	744	1.51	0
29	867	1.61	0
29	990	1.71	0
29	1114	1.81	0
29	1237	1.91	0
29	1371	2.01	0
29	1494	2.11	0
29	1617	2.21	0
29	1740	2.31	0
29	1863	2.41	0
29	1986	2.51	0
29	2109	2.61	0
29	2232	2.71	0
29	2355	2.81	0
29	2478	2.91	0
29	2609	3.01	0
29	2732	3.11	0
29	2855	3.21	0
29	2978	3.31	0
29	3101	3.41	0
29	3224	3.51	0
29	3347	3.61	0
29	3470	3.71	0
29	3593	3.81	0
29	3716	3.91	0
29	3847	4.01	0
29	3970	4.11	0
29	4093	4.21	0
29	4216	4.31	0
29	4339	4.41	0
29	4462	4.51	0
29	4585	4.61	0
29	4708	4.71	0
29	4831	4.81	0
29	4954	4.91	0
29	5097	5.01	0
29	5232	5.11	0
29	5367	5.21	0
29	5502	5.31	0
29	5637	5.41	0
29	5772	5.51	0
29	5907	5.61	0
29	6042	5.71	0
29	6177	5.81	0
29	6312	5.91	0
29	6455	6.01	0
29	6590	6.11	0
29	6725	6.21	0
29	6860	6.31	0
29	6995	6.41	0
29	7130	6.51	0
29	7265	6.61	0
29	7400	6.71	0
29	7535	6.81	0
29	7670	6.91	0
29	7813	7.01	0
29	7948	7.11	0
29	8083	7.21	0
29	8218	7.31	0
29	8353	7.41	0
29	8488	7.51	0
29	8623	7.61	0
29	8758	7.71	0
29	8893	7.81	0
29	9028	7.91	0
29	9171	8.01	0
29	9306	8.11	0
29	9441	8.21	0
29	9576	8.31	0
29	9711	8.41	0
29	9846	8.51	0
29	9981	8.61	0
29	10116	8.71	0
29	10251	8.81	0
29	10386	8.91	0
29	10529	9.01	0
29	10664	9.11	0
29	10799	9.21	0
29	10934	9.31	0
29	11069	9.41	0
29	11204	9.51	0
29	11339	9.61	0
29	11474	9.71	0
29	11609	9.81	0
29	11744	9.91	0
29	11887	10.01	0
29	12022	10.11	0
29	12157	10.21	0
29	12292	10.31	0
29	12427	10.41	0
29	12562	10.51	0
29	12697	10.61	0
29	12832	10.71	0
29	12967	10.81	0
29	13102	10.91	0
29	13245	11.01	0
29	13380	11.11	0
29	13515	11.21	0
29	13650	11.31	0
29	13785	11.41	0
29	13920	11.51	0
29	14055	11.61	0
29	14190	11.71	0
29	14325	11.81	0
29	14460	11.91	0
30	1339	2	1
30	2579	3	1
30	3817	4	1
30	5067	5	1
30	6413	6	1
30	7771	7	1
30	9129	8	1
30	10487	9	1
30	11845	10	1
30	13203	11	1
31	1339	2	0.004473
31	2579	3	0.00497
31	3817	4	0.00497
31	5067	5	0.00497
31	6413	6	0.00497
31	7771	7	0.00497
31	9129	8	0.00497
31	10487	9	0.00497
31	11845	10	0.00497
31	13203	11	0.00497
32	1339	2	0
32	2579	3	0
32	3817	4	0
32	5067	5	0
32	6413	6	0
32	7771	7	0
32	9129	8	0
32	10487	9	0
32	11845	10	0
32	13203	11	0
44	250	1.11	15
44	374	1.21	15
44	497	1.31	15
44	621	1.41	15
44	745	1.51	15
44	868	1.61	15
44	991	1.71	15
44	1115	1.81	15
44	1238	1.91	15
44	1372	2.01	15
44	1495	2.11	15
44	1618	2.21	15
44	1741	2.31	15
44	1864	2.41	15
44	1987	2.51	15
44	2110	2.61	15
44	2233	2.71	15
44	2356	2.81	15
44	2479	2.91	15
44	2610	3.01	15
44	2733	3.11	15
44	2856	3.21	15
44	2979	3.31	15
44	3102	3.41	15
44	3225	3.51	15
44	3348	3.61	15
44	3471	3.71	15
44	3594	3.81	15
44	3717	3.91	15
44	3848	4.01	15
44	3971	4.11	15
44	4094	4.21	15
44	4217	4.31	15
44	4340	4.41	15
44	4463	4.51	15
44	4586	4.61	15
44	4709	4.71	15
44	4832	4.81	15
44	4955	4.91	15
44	5098	5.01	15
44	5233	5.11	15
44	5368	5.21	15
44	5503	5.31	15
44	5638	5.41	15
44	5773	5.51	15
44	5908	5.61	15
44	6043	5.71	15
44	6178	5.81	15
44	6313	5.91	15
44	6456	6.01	15
44	6591	6.11	15
44	6726	6.21	15
44	6861	6.31	15
44	6996	6.41	15
44	7131	6.51	15
44	7266	6.61	15
44	7401	6.71	15
44	7536	6.81	15
44	7671	6.91	15
44	7814	7.01	15
44	7949	7.11	15
44	8084	7.21	15
44	8219	7.31	15
44	8354	7.41	15
44	8489	7.51	15
44	8624	7.61	15
44	8759	7.71	15
44	8894	7.81	15
44	9029	7.91	15
44	9172	8.01	15
44	9307	8.11	15
44	9442	8.21	15
44	9577	8.31	15
44	9712	8.41	15
44	9847	8.51	15
44	9982	8.61	15
44	10117	8.71	15
44	10252	8.81	15
44	10387	8.91	15
44	10530	9.01	15
44	10665	9.11	15
44	10800	9.21	15
44	10935	9.31	15
44	11070	9.41	15
44	11205	9.51	15
44	11340	9.61	15
44	11475	9.71	15
44	11610	9.81	15
44	11745	9.91	15
44	11888	10.01	15
44	12023	10.11	15
44	12158	10.21	15
44	12293	10.31	15
44	12428	10.41	15
44	12563	10.51	15
44	12698	10.61	15
44	12833	10.71	15
44	12968	10.81	15
44	13103	10.91	15
44	13246	11.01	15
44	13381	11.11	15
44	13516	11.21	15
44	13651	11.31	15
44	13786	11.41	15
44	13921	11.51	15
44	14056	11.61	15
44	14191	11.71	15
44	14326	11.81	15
44	14461	11.91	15
45	250	1.11	0
45	374	1.21	0
45	497	1.31	0
45	621	1.41	0
45	745	1.51	0
45	868	1.61	0
45	991	1.71	0
45	1115	1.81	0
45	1238	1.91	0
45	1372	2.01	0
45	1495	2.11	0
45	1618	2.21	0
45	1741	2.31	0
45	1864	2.41	0
45	1987	2.51	0
45	2110	2.61	0
45	2233	2.71	0
45	2356	2.81	0
45	2479	2.91	0
45	2610	3.01	0
45	2733	3.11	0
45	2856	3.21	0
45	2979	3.31	0
45	3102	3.41	0
45	3225	3.51	0
45	3348	3.61	0
45	3471	3.71	0
45	3594	3.81	0
45	3717	3.91	0
45	3848	4.01	0
45	3971	4.11	0
45	4094	4.21	0
45	4217	4.31	0
45	4340	4.41	0
45	4463	4.51	0
45	4586	4.61	0
45	4709	4.71	0
45	4832	4.81	0
45	4955	4.91	0
45	5098	5.01	0
45	5233	5.11	0
45	5368	5.21	0
45	5503	5.31	0
45	5638	5.41	0
45	5773	5.51	0
45	5908	5.61	0
45	6043	5.71	0
45	6178	5.81	0
45	6313	5.91	0
45	6456	6.01	0
45	6591	6.11	0
45	6726	6.21	0
45	6861	6.31	0
45	6996	6.41	0
45	7131	6.51	0
45	7266	6.61	0
45	7401	6.71	0
45	7536	6.81	0
45	7671	6.91	0
45	7814	7.01	0
45	7949	7.11	0
45	8084	7.21	0
45	8219	7.31	0
45	8354	7.41	0
45	8489	7.51	0
45	8624	7.61	0
45	8759	7.71	0
45	8894	7.81	0
45	9029	7.91	0
45	9172	8.01	0
45	9307	8.11	0
45	9442	8.21	0
45	9577	8.31	0
45	9712	8.41	0
45	9847	8.51	0
45	9982	8.61	0
45	10117	8.71	0
45	10252	8.81	0
45	10387	8.91	0
45	10530	9.01	0
45	10665	9.11	0
45	10800	9.21	0
45	10935	9.31	0
45	11070	9.41	0
45	11205	9.51	0
45	11340	9.61	0
45	11475	9.71	0
45	11610	9.81	0
45	11745	9.91	0
45	11888	10.01	0
45	12023	10.11	0
45	12158	10.21	0
45	12293	10.31	0
45	12428	10.41	0
45	12563	10.51	0
45	12698	10.61	0
45	12833	10.71	0
45	12968	10.81	0
45	13103	10.91	0
45	13246	11.01	0
45	13381	11.11	0
45	13516	11.21	0
45	13651	11.31	0
45	13786	11.41	0
45	13921	11.51	0
45	14056	11.61	0
45	14191	11.71	0
45	14326	11.81	0
45	14461	11.91	0
46	250	1.11	2
46	374	1.21	2
46	497	1.31	2
46	621	1.41	2
46	745	1.51	2
46	868	1.61	2
46	991	1.71	2
46	1115	1.81	2
46	1238	1.91	2
46	1372	2.01	2
46	1495	2.11	2
46	1618	2.21	2
46	1741	2.31	2
46	1864	2.41	2
46	1987	2.51	2
46	2110	2.61	2
46	2233	2.71	2
46	2356	2.81	2
46	2479	2.91	2
46	2610	3.01	2
46	2733	3.11	2
46	2856	3.21	2
46	2979	3.31	2
46	3102	3.41	2
46	3225	3.51	2
46	3348	3.61	2
46	3471	3.71	2
46	3594	3.81	2
46	3717	3.91	2
46	3848	4.01	2
46	3971	4.11	2
46	4094	4.21	2
46	4217	4.31	2
46	4340	4.41	2
46	4463	4.51	2
46	4586	4.61	2
46	4709	4.71	2
46	4832	4.81	2
46	4955	4.91	2
46	5098	5.01	2
46	5233	5.11	2
46	5368	5.21	2
46	5503	5.31	2
46	5638	5.41	2
46	5773	5.51	2
46	5908	5.61	2
46	6043	5.71	2
46	6178	5.81	2
46	6313	5.91	2
46	6456	6.01	2
46	6591	6.11	2
46	6726	6.21	2
46	6861	6.31	2
46	6996	6.41	2
46	7131	6.51	2
46	7266	6.61	2
46	7401	6.71	2
46	7536	6.81	2
46	7671	6.91	2
46	7814	7.01	2
46	7949	7.11	2
46	8084	7.21	2
46	8219	7.31	2
46	8354	7.41	2
46	8489	7.51	2
46	8624	7.61	2
46	8759	7.71	2
46	8894	7.81	2
46	9029	7.91	2
46	9172	8.01	2
46	9307	8.11	2
46	9442	8.21	2
46	9577	8.31	2
46	9712	8.41	2
46	9847	8.51	2
46	9982	8.61	2
46	10117	8.71	2
46	10252	8.81	2
46	10387	8.91	2
46	10530	9.01	2
46	10665	9.11	2
46	10800	9.21	2
46	10935	9.31	2
46	11070	9.41	2
46	11205	9.51	2
46	11340	9.61	2
46	11475	9.71	2
46	11610	9.81	2
46	11745	9.91	2
46	11888	10.01	2
46	12023	10.11	2
46	12158	10.21	2
46	12293	10.31	2
46	12428	10.41	2
46	12563	10.51	2
46	12698	10.61	2
46	12833	10.71	2
46	12968	10.81	2
46	13103	10.91	2
46	13246	11.01	2
46	13381	11.11	2
46	13516	11.21	2
46	13651	11.31	2
46	13786	11.41	2
46	13921	11.51	2
46	14056	11.61	2
46	14191	11.71	2
46	14326	11.81	2
46	14461	11.91	2
47	250	1.11	27.777778625488
47	374	1.21	27.777778625488
47	497	1.31	27.777778625488
47	621	1.41	27.777778625488
47	745	1.51	27.777778625488
47	868	1.61	27.777778625488
47	991	1.71	27.777778625488
47	1115	1.81	27.777778625488
47	1238	1.91	27.777778625488
47	1372	2.01	27.777778625488
47	1495	2.11	27.777778625488
47	1618	2.21	27.777778625488
47	1741	2.31	27.777778625488
47	1864	2.41	27.777778625488
47	1987	2.51	27.777778625488
47	2110	2.61	27.777778625488
47	2233	2.71	27.777778625488
47	2356	2.81	27.777778625488
47	2479	2.91	27.777778625488
47	2610	3.01	27.777778625488
47	2733	3.11	27.777778625488
47	2856	3.21	27.777778625488
47	2979	3.31	27.777778625488
47	3102	3.41	27.777778625488
47	3225	3.51	27.777778625488
47	3348	3.61	27.777778625488
47	3471	3.71	27.777778625488
47	3594	3.81	27.777778625488
47	3717	3.91	27.777778625488
47	3848	4.01	27.777778625488
47	3971	4.11	27.777778625488
47	4094	4.21	27.777778625488
47	4217	4.31	27.777778625488
47	4340	4.41	27.777778625488
47	4463	4.51	27.777778625488
47	4586	4.61	27.777778625488
47	4709	4.71	27.777778625488
47	4832	4.81	27.777778625488
47	4955	4.91	27.777778625488
47	5098	5.01	27.777778625488
47	5233	5.11	27.777778625488
47	5368	5.21	27.777778625488
47	5503	5.31	27.777778625488
47	5638	5.41	27.777778625488
47	5773	5.51	27.777778625488
47	5908	5.61	27.777778625488
47	6043	5.71	27.777778625488
47	6178	5.81	27.777778625488
47	6313	5.91	27.777778625488
47	6456	6.01	27.777778625488
47	6591	6.11	27.777778625488
47	6726	6.21	27.777778625488
47	6861	6.31	27.777778625488
47	6996	6.41	27.777778625488
47	7131	6.51	27.777778625488
47	7266	6.61	27.777778625488
47	7401	6.71	27.777778625488
47	7536	6.81	27.777778625488
47	7671	6.91	27.777778625488
47	7814	7.01	27.777778625488
47	7949	7.11	27.777778625488
47	8084	7.21	27.777778625488
47	8219	7.31	27.777778625488
47	8354	7.41	27.777778625488
47	8489	7.51	27.777778625488
47	8624	7.61	27.777778625488
47	8759	7.71	27.777778625488
47	8894	7.81	27.777778625488
47	9029	7.91	27.777778625488
47	9172	8.01	27.777778625488
47	9307	8.11	27.777778625488
47	9442	8.21	27.777778625488
47	9577	8.31	27.777778625488
47	9712	8.41	27.777778625488
47	9847	8.51	27.777778625488
47	9982	8.61	27.777778625488
47	10117	8.71	27.777778625488
47	10252	8.81	27.777778625488
47	10387	8.91	27.777778625488
47	10530	9.01	27.777778625488
47	10665	9.11	27.777778625488
47	10800	9.21	27.777778625488
47	10935	9.31	27.777778625488
47	11070	9.41	27.777778625488
47	11205	9.51	27.777778625488
47	11340	9.61	27.777778625488
47	11475	9.71	27.777778625488
47	11610	9.81	27.777778625488
47	11745	9.91	27.777778625488
47	11888	10.01	27.777778625488
47	12023	10.11	27.777778625488
47	12158	10.21	27.777778625488
47	12293	10.31	27.777778625488
47	12428	10.41	27.777778625488
47	12563	10.51	27.777778625488
47	12698	10.61	27.777778625488
47	12833	10.71	27.777778625488
47	12968	10.81	27.777778625488
47	13103	10.91	27.777778625488
47	13246	11.01	27.777778625488
47	13381	11.11	27.777778625488
47	13516	11.21	27.777778625488
47	13651	11.31	27.777778625488
47	13786	11.41	27.777778625488
47	13921	11.51	27.777778625488
47	14056	11.61	27.777778625488
47	14191	11.71	27.777778625488
47	14326	11.81	27.777778625488
47	14461	11.91	27.777778625488
48	250	1.11	36.217641067505
48	374	1.21	38.995418930054
48	497	1.31	41.773196792603
48	621	1.41	44.550974655151
48	745	1.51	47.3287525177
48	868	1.61	50.106530380249
48	991	1.71	52.884308242798
48	1115	1.81	55.662086105347
48	1238	1.91	58.439863967896
48	1372	2.01	61.217641830444
48	1495	2.11	63.995419692993
48	1618	2.21	66.773197555542
48	1741	2.31	69.550975418091
48	1864	2.41	72.32875328064
48	1987	2.51	75.106531143188
48	2110	2.61	77.884309005737
48	2233	2.71	80.662086868286
48	2356	2.81	83.439864730835
48	2479	2.91	86.217642593384
48	2610	3.01	88.995420455932
48	2733	3.11	91.773198318481
48	2856	3.21	94.55097618103
48	2979	3.31	97.328754043579
48	3102	3.41	100.10653190613
48	3225	3.51	102.88430976868
48	3348	3.61	105.66208763123
48	3471	3.71	108.43986549377
48	3594	3.81	111.21764335632
48	3717	3.91	113.99542121887
48	3848	4.01	116.77319908142
48	3971	4.11	119.55097694397
48	4094	4.21	122.32875480652
48	4217	4.31	125.10653266907
48	4340	4.41	127.88431053162
48	4463	4.51	130.66208839417
48	4586	4.61	133.43986625671
48	4709	4.71	136.21764411926
48	4832	4.81	138.99542198181
48	4955	4.91	141.77319984436
48	5098	5.01	144.55097770691
48	5233	5.11	147.32875556946
48	5368	5.21	150.10653343201
48	5503	5.31	152.88431129456
48	5638	5.41	155.66208915711
48	5773	5.51	158.43986701965
48	5908	5.61	161.2176448822
48	6043	5.71	163.99542274475
48	6178	5.81	166.7732006073
48	6313	5.91	169.55097846985
48	6456	6.01	172.3287563324
48	6591	6.11	175.10653419495
48	6726	6.21	177.8843120575
48	6861	6.31	180.66208992005
48	6996	6.41	183.43986778259
48	7131	6.51	186.21764564514
48	7266	6.61	188.99542350769
48	7401	6.71	191.77320137024
48	7536	6.81	194.55097923279
48	7671	6.91	197.32875709534
48	7814	7.01	200.10653495789
48	7949	7.11	202.88431282044
48	8084	7.21	205.66209068299
48	8219	7.31	208.43986854553
48	8354	7.41	211.21764640808
48	8489	7.51	213.99542427063
48	8624	7.61	216.77320213318
48	8759	7.71	219.55097999573
48	8894	7.81	222.32875785828
48	9029	7.91	225.10653572083
48	9172	8.01	227.88431358338
48	9307	8.11	230.66209144592
48	9442	8.21	233.43986930847
48	9577	8.31	236.21764717102
48	9712	8.41	238.99542503357
48	9847	8.51	241.77320289612
48	9982	8.61	244.55098075867
48	10117	8.71	247.32875862122
48	10252	8.81	250.10653648377
48	10387	8.91	252.88431434632
48	10530	9.01	255.66209220886
48	10665	9.11	258.43987007141
48	10800	9.21	261.21764793396
48	10935	9.31	263.99542579651
48	11070	9.41	266.77320365906
48	11205	9.51	269.55098152161
48	11340	9.61	272.32875938416
48	11475	9.71	275.10653724671
48	11610	9.81	277.88431510926
48	11745	9.91	280.6620929718
48	11888	10.01	283.43987083435
48	12023	10.11	286.2176486969
48	12158	10.21	288.99542655945
48	12293	10.31	291.773204422
48	12428	10.41	294.55098228455
48	12563	10.51	297.3287601471
48	12698	10.61	300.10653800965
48	12833	10.71	302.8843158722
48	12968	10.81	305.66209373474
48	13103	10.91	308.43987159729
48	13246	11.01	311.21764945984
48	13381	11.11	313.99542732239
48	13516	11.21	316.77320518494
48	13651	11.31	319.55098304749
48	13786	11.41	322.32876091004
48	13921	11.51	325.10653877259
48	14056	11.61	327.88431663514
48	14191	11.71	330.66209449768
48	14326	11.81	333.43987236023
48	14461	11.91	336.21765022278
49	250	1.11	36.55
49	374	1.21	36.55
49	497	1.31	36.55
49	621	1.41	36.55
49	745	1.51	36.55
49	868	1.61	36.55
49	991	1.71	36.55
49	1115	1.81	36.55
49	1238	1.91	36.55
49	1372	2.01	36.55
49	1495	2.11	36.55
49	1618	2.21	36.55
49	1741	2.31	36.55
49	1864	2.41	36.55
49	1987	2.51	36.55
49	2110	2.61	36.55
49	2233	2.71	36.55
49	2356	2.81	36.55
49	2479	2.91	36.55
49	2610	3.01	36.55
49	2733	3.11	36.55
49	2856	3.21	36.55
49	2979	3.31	36.55
49	3102	3.41	36.55
49	3225	3.51	36.55
49	3348	3.61	36.55
49	3471	3.71	36.55
49	3594	3.81	36.55
49	3717	3.91	36.55
49	3848	4.01	36.55
49	3971	4.11	36.55
49	4094	4.21	36.55
49	4217	4.31	36.55
49	4340	4.41	36.55
49	4463	4.51	36.55
49	4586	4.61	36.55
49	4709	4.71	36.55
49	4832	4.81	36.55
49	4955	4.91	36.55
49	5098	5.01	36.55
49	5233	5.11	36.55
49	5368	5.21	36.55
49	5503	5.31	36.55
49	5638	5.41	36.55
49	5773	5.51	36.55
49	5908	5.61	36.55
49	6043	5.71	36.55
49	6178	5.81	36.55
49	6313	5.91	36.55
49	6456	6.01	36.55
49	6591	6.11	36.55
49	6726	6.21	36.55
49	6861	6.31	36.55
49	6996	6.41	36.55
49	7131	6.51	36.55
49	7266	6.61	36.55
49	7401	6.71	36.55
49	7536	6.81	36.55
49	7671	6.91	36.55
49	7814	7.01	36.55
49	7949	7.11	36.55
49	8084	7.21	36.55
49	8219	7.31	36.55
49	8354	7.41	36.55
49	8489	7.51	36.55
49	8624	7.61	36.55
49	8759	7.71	36.55
49	8894	7.81	36.55
49	9029	7.91	36.55
49	9172	8.01	36.55
49	9307	8.11	36.55
49	9442	8.21	36.55
49	9577	8.31	36.55
49	9712	8.41	36.55
49	9847	8.51	36.55
49	9982	8.61	36.55
49	10117	8.71	36.55
49	10252	8.81	36.55
49	10387	8.91	36.55
49	10530	9.01	36.55
49	10665	9.11	36.55
49	10800	9.21	36.55
49	10935	9.31	36.55
49	11070	9.41	36.55
49	11205	9.51	36.55
49	11340	9.61	36.55
49	11475	9.71	36.55
49	11610	9.81	36.55
49	11745	9.91	36.55
49	11888	10.01	36.55
49	12023	10.11	36.55
49	12158	10.21	36.55
49	12293	10.31	36.55
49	12428	10.41	36.55
49	12563	10.51	36.55
49	12698	10.61	36.55
49	12833	10.71	36.55
49	12968	10.81	36.55
49	13103	10.91	36.55
49	13246	11.01	36.55
49	13381	11.11	36.55
49	13516	11.21	36.55
49	13651	11.31	36.55
49	13786	11.41	36.55
49	13921	11.51	36.55
49	14056	11.61	36.55
49	14191	11.71	36.55
49	14326	11.81	36.55
49	14461	11.91	36.55
50	250	1.11	0
50	374	1.21	0
50	497	1.31	0
50	621	1.41	0
50	745	1.51	0
50	868	1.61	0
50	991	1.71	0
50	1115	1.81	0
50	1238	1.91	0
50	1372	2.01	0
50	1495	2.11	0
50	1618	2.21	0
50	1741	2.31	0
50	1864	2.41	0
50	1987	2.51	0
50	2110	2.61	0
50	2233	2.71	0
50	2356	2.81	0
50	2479	2.91	0
50	2610	3.01	0
50	2733	3.11	0
50	2856	3.21	0
50	2979	3.31	0
50	3102	3.41	0
50	3225	3.51	0
50	3348	3.61	0
50	3471	3.71	0
50	3594	3.81	0
50	3717	3.91	0
50	3848	4.01	0
50	3971	4.11	0
50	4094	4.21	0
50	4217	4.31	0
50	4340	4.41	0
50	4463	4.51	0
50	4586	4.61	0
50	4709	4.71	0
50	4832	4.81	0
50	4955	4.91	0
50	5098	5.01	0
50	5233	5.11	0
50	5368	5.21	0
50	5503	5.31	0
50	5638	5.41	0
50	5773	5.51	0
50	5908	5.61	0
50	6043	5.71	0
50	6178	5.81	0
50	6313	5.91	0
50	6456	6.01	0
50	6591	6.11	0
50	6726	6.21	0
50	6861	6.31	0
50	6996	6.41	0
50	7131	6.51	0
50	7266	6.61	0
50	7401	6.71	0
50	7536	6.81	0
50	7671	6.91	0
50	7814	7.01	0
50	7949	7.11	0
50	8084	7.21	0
50	8219	7.31	0
50	8354	7.41	0
50	8489	7.51	0
50	8624	7.61	0
50	8759	7.71	0
50	8894	7.81	0
50	9029	7.91	0
50	9172	8.01	0
50	9307	8.11	0
50	9442	8.21	0
50	9577	8.31	0
50	9712	8.41	0
50	9847	8.51	0
50	9982	8.61	0
50	10117	8.71	0
50	10252	8.81	0
50	10387	8.91	0
50	10530	9.01	0
50	10665	9.11	0
50	10800	9.21	0
50	10935	9.31	0
50	11070	9.41	0
50	11205	9.51	0
50	11340	9.61	0
50	11475	9.71	0
50	11610	9.81	0
50	11745	9.91	0
50	11888	10.01	0
50	12023	10.11	0
50	12158	10.21	0
50	12293	10.31	0
50	12428	10.41	0
50	12563	10.51	0
50	12698	10.61	0
50	12833	10.71	0
50	12968	10.81	0
50	13103	10.91	0
50	13246	11.01	0
50	13381	11.11	0
50	13516	11.21	0
50	13651	11.31	0
50	13786	11.41	0
50	13921	11.51	0
50	14056	11.61	0
50	14191	11.71	0
50	14326	11.81	0
50	14461	11.91	0
51	250	1.11	0
51	374	1.21	0
51	497	1.31	0
51	621	1.41	0
51	745	1.51	0
51	868	1.61	0
51	991	1.71	0
51	1115	1.81	0
51	1238	1.91	0
51	1372	2.01	0
51	1495	2.11	0
51	1618	2.21	0
51	1741	2.31	0
51	1864	2.41	0
51	1987	2.51	0
51	2110	2.61	0
51	2233	2.71	0
51	2356	2.81	0
51	2479	2.91	0
51	2610	3.01	0
51	2733	3.11	0
51	2856	3.21	0
51	2979	3.31	0
51	3102	3.41	0
51	3225	3.51	0
51	3348	3.61	0
51	3471	3.71	0
51	3594	3.81	0
51	3717	3.91	0
51	3848	4.01	0
51	3971	4.11	0
51	4094	4.21	0
51	4217	4.31	0
51	4340	4.41	0
51	4463	4.51	0
51	4586	4.61	0
51	4709	4.71	0
51	4832	4.81	0
51	4955	4.91	0
51	5098	5.01	0
51	5233	5.11	0
51	5368	5.21	0
51	5503	5.31	0
51	5638	5.41	0
51	5773	5.51	0
51	5908	5.61	0
51	6043	5.71	0
51	6178	5.81	0
51	6313	5.91	0
51	6456	6.01	0
51	6591	6.11	0
51	6726	6.21	0
51	6861	6.31	0
51	6996	6.41	0
51	7131	6.51	0
51	7266	6.61	0
51	7401	6.71	0
51	7536	6.81	0
51	7671	6.91	0
51	7814	7.01	0
51	7949	7.11	0
51	8084	7.21	0
51	8219	7.31	0
51	8354	7.41	0
51	8489	7.51	0
51	8624	7.61	0
51	8759	7.71	0
51	8894	7.81	0
51	9029	7.91	0
51	9172	8.01	0
51	9307	8.11	0
51	9442	8.21	0
51	9577	8.31	0
51	9712	8.41	0
51	9847	8.51	0
51	9982	8.61	0
51	10117	8.71	0
51	10252	8.81	0
51	10387	8.91	0
51	10530	9.01	0
51	10665	9.11	0
51	10800	9.21	0
51	10935	9.31	0
51	11070	9.41	0
51	11205	9.51	0
51	11340	9.61	0
51	11475	9.71	0
51	11610	9.81	0
51	11745	9.91	0
51	11888	10.01	0
51	12023	10.11	0
51	12158	10.21	0
51	12293	10.31	0
51	12428	10.41	0
51	12563	10.51	0
51	12698	10.61	0
51	12833	10.71	0
51	12968	10.81	0
51	13103	10.91	0
51	13246	11.01	0
51	13381	11.11	0
51	13516	11.21	0
51	13651	11.31	0
51	13786	11.41	0
51	13921	11.51	0
51	14056	11.61	0
51	14191	11.71	0
51	14326	11.81	0
51	14461	11.91	0
52	1340	2	2
52	2580	3	2
52	3818	4	2
52	5068	5	2
52	6414	6	2
52	7772	7	2
52	9130	8	2
52	10488	9	2
52	11846	10	2
52	13204	11	2
53	1340	2	0.004473
53	2580	3	0.00497
53	3818	4	0.00497
53	5068	5	0.00497
53	6414	6	0.00497
53	7772	7	0.00497
53	9130	8	0.00497
53	10488	9	0.00497
53	11846	10	0.00497
53	13204	11	0.00497
54	1340	2	0
54	2580	3	0
54	3818	4	0
54	5068	5	0
54	6414	6	0
54	7772	7	0
54	9130	8	0
54	10488	9	0
54	11846	10	0
54	13204	11	0
66	251	1.11	15.000297416642
66	375	1.21	15.003031822654
66	498	1.31	15.01075058172
66	622	1.41	15.025467371553
66	746	1.51	15.048715202403
66	869	1.61	15.081605928367
66	992	1.71	15.124885924854
66	1116	1.81	15.178987747062
66	1239	1.91	15.244077676877
66	1373	2.01	15.3200991437
66	1496	2.11	15.406812069649
66	1619	2.21	15.503828242582
66	1742	2.31	15.610642862777
66	1865	2.41	15.726662442006
66	1988	2.51	15.851229258274
66	2111	2.61	15.983642586768
66	2234	2.71	16.123176938551
66	2357	2.81	16.269097544072
66	2480	2.91	16.420673319651
66	2611	3.01	16.577187552332
66	2734	3.11	16.737946532649
66	2857	3.21	16.902286356568
66	2980	3.31	17.069578107625
66	3103	3.41	17.239231618604
66	3226	3.51	17.41069799941
66	3349	3.61	17.583471104478
66	3472	3.71	17.757088099363
66	3595	3.81	17.931129272419
66	3718	3.91	18.105217223886
66	3849	4.01	18.279015551436
66	3972	4.11	18.452227138427
66	4095	4.21	18.624592138919
66	4218	4.31	18.795885741958
66	4341	4.41	18.965915786835
66	4464	4.51	19.134520290976
66	4587	4.61	19.301564942888
66	4710	4.71	19.466940604093
66	4833	4.81	19.630560856359
66	4956	4.91	19.792359623573
66	5099	5.01	19.952288891484
66	5234	5.11	20.110316543052
66	5369	5.21	20.266567781456
66	5504	5.31	20.421699689941
66	5639	5.41	20.576844104939
66	5774	5.51	20.733464450437
66	5909	5.61	20.893202538687
66	6044	5.71	21.057656695764
66	6179	5.81	21.228094851299
66	6314	5.91	21.405447070039
66	6457	6.01	21.590351611538
66	6592	6.11	21.783197341963
66	6727	6.21	21.984162311082
66	6862	6.31	22.193248628374
66	6997	6.41	22.410313794455
66	7132	6.51	22.635098661982
66	7267	6.61	22.867236031789
66	7402	6.71	23.106095464592
66	7537	6.81	23.350577636416
66	7672	6.91	23.599129110918
66	7815	7.01	23.849798246447
66	7950	7.11	24.100300875247
66	8085	7.21	24.348093213227
66	8220	7.31	24.59044957477
66	8355	7.41	24.824552276313
66	8490	7.51	25.04780033234
66	8625	7.61	25.258452484173
66	8760	7.71	25.455829159696
66	8895	7.81	25.640140322241
66	9030	7.91	25.81227928379
66	9173	8.01	25.973637351565
66	9308	8.11	26.12588051766
66	9443	8.21	26.270616063349
66	9578	8.31	26.409192745402
66	9713	8.41	26.542717014143
66	9848	8.51	26.672096544211
66	9983	8.61	26.798075944958
66	10118	8.71	26.921266055395
66	10253	8.81	27.042167976269
66	10388	8.91	27.161192784726
66	10531	9.01	27.278677707202
66	10666	9.11	27.394899386831
66	10801	9.21	27.510067063178
66	10936	9.31	27.624136287257
66	11071	9.41	27.736551227804
66	11206	9.51	27.846248790423
66	11341	9.61	27.951862426464
66	11476	9.71	28.052232772545
66	11611	9.81	28.146637960474
66	11746	9.91	28.235184217305
66	11889	10.01	28.318802138684
66	12024	10.11	28.399071429061
66	12159	10.21	28.478043610919
66	12294	10.31	28.557967634228
66	12429	10.41	28.640835947706
66	12564	10.51	28.728243531868
66	12699	10.61	28.821419276632
66	12834	10.71	28.921273571317
66	12969	10.81	29.028441949705
66	13104	10.91	29.14332491466
66	13247	11.01	29.26612408377
66	13382	11.11	29.396874812879
66	13517	11.21	29.535475467675
66	13652	11.31	29.681713524289
66	13787	11.41	29.835288687951
66	13922	11.51	29.995833224271
66	14057	11.61	30.162929700529
66	14192	11.71	30.336126334888
66	14327	11.81	30.514950149665
66	14462	11.91	30.698911457294
67	251	1.11	0.011747285118119
67	375	1.21	0.051030582155843
67	498	1.31	0.11279075097729
67	622	1.41	0.19194294191357
67	746	1.51	0.28401392667171
67	869	1.61	0.38510488892364
67	992	1.71	0.49185190289768
67	1116	1.81	0.60138509447319
67	1239	1.91	0.71128732869304
67	1373	2.01	0.81955313006996
67	1496	2.11	0.9245484174204
67	1619	2.21	1.0249715228844
67	1742	2.31	1.1198158648261
67	1865	2.41	1.2083345558907
67	1988	2.51	1.290007149979
67	2111	2.61	1.3645086645958
67	2234	2.71	1.431680957196
67	2357	2.81	1.4915064850501
67	2480	2.91	1.5440844370176
67	2611	3.01	1.589609191715
67	2734	3.11	1.6283510291639
67	2857	3.21	1.6606390014067
67	2980	3.31	1.6868458511101
67	3103	3.41	1.707374855215
67	3226	3.51	1.7226484626419
67	3349	3.61	1.7330985903688
67	3472	3.71	1.7391584403728
67	3595	3.81	1.7412557004855
67	3718	3.91	1.7398069947553
67	3849	4.01	1.7352134530447
67	3972	4.11	1.7278572749952
67	4095	4.21	1.7180991698497
67	4218	4.31	1.7062765606947
67	4341	4.41	1.69270244922
67	4464	4.51	1.677664844917
67	4587	4.61	1.6614266705678
67	4710	4.71	1.644226063785
67	4833	4.81	1.6262770021273
67	4956	4.91	1.6077701868465
67	5099	5.01	1.5888741275427
67	5234	5.11	1.569736376863
67	5369	5.21	1.5540133168146
67	5504	5.31	1.547234397009
67	5639	5.41	1.553481682898
67	5774	5.51	1.5754191332229
67	5909	5.61	1.6140381841034
67	6044	5.71	1.6673125496216
67	6179	5.81	1.731591008455
67	6314	5.91	1.8037065401434
67	6457	6.01	1.8809422628293
67	6592	6.11	1.9609910389809
67	6727	6.21	2.041916580808
67	6862	6.31	2.122116247788
67	6997	6.41	2.2002856950951
67	7132	6.51	2.2753854969756
67	7267	6.61	2.3461028993128
67	7402	6.71	2.4085006848578
67	7537	6.81	2.4577930944647
67	7672	6.91	2.4896934608328
67	7815	7.01	2.5005247692264
67	7950	7.11	2.4873043840842
67	8085	7.21	2.4478039674258
67	8220	7.31	2.3805886000917
67	8355	7.41	2.2854193494675
67	8490	7.51	2.1681287119536
67	8625	7.61	2.0389378870352
67	8760	7.71	1.9078164886626
67	8895	7.81	1.7825596895044
67	9030	7.91	1.6690049377895
67	9173	8.01	1.5712077998933
67	9308	8.11	1.4900636550516
67	9443	8.21	1.4234971937858
67	9578	8.31	1.3688895104577
67	9713	8.41	1.3240921902793
67	9848	8.51	1.2873427848322
67	9983	8.61	1.2571954725522
67	10118	8.71	1.2324641761775
67	10253	8.81	1.2121758992429
67	10388	8.91	1.1955324457521
67	10531	9.01	1.1818790169769
67	10666	9.11	1.1706760729182
67	10801	9.21	1.1607522697938
67	10936	9.31	1.1476633299984
67	11071	9.41	1.1261344676758
67	11206	9.51	1.0913744531484
67	11341	9.61	1.0429062447814
67	11476	9.71	0.9839684271565
67	11611	9.81	0.92149096339162
67	11746	9.91	0.86443636178496
67	11889	10.01	0.82021932892431
67	12024	10.11	0.79444214755722
67	12159	10.21	0.79098074264001
67	12294	10.31	0.80947410479032
67	12429	10.41	0.84618003406377
67	12564	10.51	0.89712731093209
67	12699	10.61	0.95885390046204
67	12834	10.71	1.0283642597867
67	12969	10.81	1.10308830242
67	13104	10.91	1.1808421055538
67	13247	11.01	1.2597904503792
67	13382	11.11	1.3384112792502
67	13517	11.21	1.415462140444
67	13652	11.31	1.489948673934
67	13787	11.41	1.5610951719451
67	13922	11.51	1.6283172276123
67	14057	11.61	1.6911964649076
67	14192	11.71	1.7494573239432
67	14327	11.81	1.8029458583324
67	14462	11.91	1.8513543831165
68	251	1.11	0
68	375	1.21	0
68	498	1.31	0
68	622	1.41	0
68	746	1.51	0
68	869	1.61	0
68	992	1.71	0
68	1116	1.81	0
68	1239	1.91	0
68	1373	2.01	0
68	1496	2.11	0
68	1619	2.21	0
68	1742	2.31	0
68	1865	2.41	0
68	1988	2.51	0
68	2111	2.61	0
68	2234	2.71	0
68	2357	2.81	0
68	2480	2.91	0
68	2611	3.01	0
68	2734	3.11	0
68	2857	3.21	0
68	2980	3.31	0
68	3103	3.41	0
68	3226	3.51	0
68	3349	3.61	0
68	3472	3.71	0
68	3595	3.81	0
68	3718	3.91	0
68	3849	4.01	0
68	3972	4.11	0
68	4095	4.21	0
68	4218	4.31	0
68	4341	4.41	0
68	4464	4.51	0
68	4587	4.61	0
68	4710	4.71	0
68	4833	4.81	0
68	4956	4.91	0
68	5099	5.01	0
68	5234	5.11	0
68	5369	5.21	0
68	5504	5.31	0
68	5639	5.41	0
68	5774	5.51	0
68	5909	5.61	0
68	6044	5.71	0
68	6179	5.81	0
68	6314	5.91	0
68	6457	6.01	0
68	6592	6.11	0
68	6727	6.21	0
68	6862	6.31	0
68	6997	6.41	0
68	7132	6.51	0
68	7267	6.61	0
68	7402	6.71	0
68	7537	6.81	0
68	7672	6.91	0
68	7815	7.01	0
68	7950	7.11	0
68	8085	7.21	0
68	8220	7.31	0
68	8355	7.41	0
68	8490	7.51	0
68	8625	7.61	0
68	8760	7.71	0
68	8895	7.81	0
68	9030	7.91	0
68	9173	8.01	0
68	9308	8.11	0
68	9443	8.21	0
68	9578	8.31	0
68	9713	8.41	0
68	9848	8.51	0
68	9983	8.61	0
68	10118	8.71	0
68	10253	8.81	0
68	10388	8.91	0
68	10531	9.01	0
68	10666	9.11	0
68	10801	9.21	0
68	10936	9.31	0
68	11071	9.41	0
68	11206	9.51	0
68	11341	9.61	0
68	11476	9.71	0
68	11611	9.81	0
68	11746	9.91	0
68	11889	10.01	0
68	12024	10.11	0
68	12159	10.21	0
68	12294	10.31	0
68	12429	10.41	0
68	12564	10.51	0
68	12699	10.61	0
68	12834	10.71	0
68	12969	10.81	0
68	13104	10.91	0
68	13247	11.01	0
68	13382	11.11	0
68	13517	11.21	0
68	13652	11.31	0
68	13787	11.41	0
68	13922	11.51	0
68	14057	11.61	0
68	14192	11.71	0
68	14327	11.81	0
68	14462	11.91	0
69	251	1.11	27.766031335733
69	375	1.21	27.726748020326
69	498	1.31	27.664987821643
69	622	1.41	27.585835591955
69	746	1.51	27.493764561845
69	869	1.61	27.392673549641
69	992	1.71	27.285926482837
69	1116	1.81	27.176393237018
69	1239	1.91	27.066490948369
69	1373	2.01	26.958225093386
69	1496	2.11	26.853229754066
69	1619	2.21	26.752806598908
69	1742	2.31	26.657962210029
69	1865	2.41	26.569443475131
69	1988	2.51	26.487770840542
69	2111	2.61	26.413269288885
69	2234	2.71	26.346096962748
69	2357	2.81	26.286271404831
69	2480	2.91	26.233693426192
69	2611	3.01	26.188168648082
69	2734	3.11	26.149426790314
69	2857	3.21	26.117138800654
69	2980	3.31	26.090931936228
69	3103	3.41	26.070402919873
[...]
139	5237	5.11	0
139	5372	5.21	0
139	5507	5.31	0
139	5642	5.41	0
139	5777	5.51	0
139	5912	5.61	0
139	6047	5.71	0
139	6182	5.81	0
139	6317	5.91	0
139	6460	6.01	0
139	6595	6.11	0
139	6730	6.21	0
139	6865	6.31	0
139	7000	6.41	0
139	7135	6.51	0
139	7270	6.61	0
139	7405	6.71	0
139	7540	6.81	0
139	7675	6.91	0
139	7818	7.01	0
139	7953	7.11	0
139	8088	7.21	0
139	8223	7.31	0
139	8358	7.41	0
139	8493	7.51	0
139	8628	7.61	0
139	8763	7.71	0
139	8898	7.81	0
139	9033	7.91	0
139	9176	8.01	0
139	9311	8.11	0
139	9446	8.21	0
139	9581	8.31	0
139	9716	8.41	0
139	9851	8.51	0
139	9986	8.61	0
139	10121	8.71	0
139	10256	8.81	0
139	10391	8.91	0
139	10534	9.01	0
139	10669	9.11	0
139	10804	9.21	0
139	10939	9.31	0
139	11074	9.41	0
139	11209	9.51	0
139	11344	9.61	0
139	11479	9.71	0
139	11614	9.81	0
139	11749	9.91	0
139	11892	10.01	0
139	12027	10.11	0
139	12162	10.21	0
139	12297	10.31	0
139	12432	10.41	0
139	12567	10.51	0
139	12702	10.61	0
139	12837	10.71	0
139	12972	10.81	0
139	13107	10.91	0
139	13250	11.01	0
139	13385	11.11	0
139	13520	11.21	0
139	13655	11.31	0
139	13790	11.41	0
139	13925	11.51	0
139	14060	11.61	0
139	14195	11.71	0
139	14330	11.81	0
139	14465	11.91	0
140	1344	2	1
140	2584	3	1
140	3822	4	1
140	5072	5	1
140	6418	6	1
140	7776	7	1
140	9134	8	1
140	10492	9	1
140	11850	10	1
140	13208	11	1
141	1344	2	0.004473
141	2584	3	0.00497
141	3822	4	0.00497
141	5072	5	0.00497
141	6418	6	0.00497
141	7776	7	0.00497
141	9134	8	0.00497
141	10492	9	0.00497
141	11850	10	0.00497
141	13208	11	0.00497
142	1344	2	0
142	2584	3	0
142	3822	4	0
142	5072	5	0
142	6418	6	0
142	7776	7	0
142	9134	8	0
142	10492	9	0
142	11850	10	0
142	13208	11	0
154	255	1.11	15
154	379	1.21	15
154	502	1.31	15
154	626	1.41	15
154	750	1.51	15
154	873	1.61	15
154	996	1.71	15
154	1120	1.81	15
154	1243	1.91	15
154	1377	2.01	15
154	1500	2.11	15
154	1623	2.21	15
154	1746	2.31	15
154	1869	2.41	15
154	1992	2.51	15
154	2115	2.61	15
154	2238	2.71	15
154	2361	2.81	15
154	2484	2.91	15
154	2615	3.01	15
154	2738	3.11	15
154	2861	3.21	15
154	2984	3.31	15
154	3107	3.41	15
154	3230	3.51	15
154	3353	3.61	15
154	3476	3.71	15
154	3599	3.81	15
154	3722	3.91	15
154	3853	4.01	15
154	3976	4.11	15
154	4099	4.21	15
154	4222	4.31	15
154	4345	4.41	15
154	4468	4.51	15
154	4591	4.61	15
154	4714	4.71	15
154	4837	4.81	15
154	4960	4.91	15
154	5103	5.01	15
154	5238	5.11	15
154	5373	5.21	15
154	5508	5.31	15
154	5643	5.41	15
154	5778	5.51	15
154	5913	5.61	15
154	6048	5.71	15
154	6183	5.81	15
154	6318	5.91	15
154	6461	6.01	15
154	6596	6.11	15
154	6731	6.21	15
154	6866	6.31	15
154	7001	6.41	15
154	7136	6.51	15
154	7271	6.61	15
154	7406	6.71	15
154	7541	6.81	15
154	7676	6.91	15
154	7819	7.01	15
154	7954	7.11	15
154	8089	7.21	15
154	8224	7.31	15
154	8359	7.41	15
154	8494	7.51	15
154	8629	7.61	15
154	8764	7.71	15
154	8899	7.81	15
154	9034	7.91	15
154	9177	8.01	15
154	9312	8.11	15
154	9447	8.21	15
154	9582	8.31	15
154	9717	8.41	15
154	9852	8.51	15
154	9987	8.61	15
154	10122	8.71	15
154	10257	8.81	15
154	10392	8.91	15
154	10535	9.01	15
154	10670	9.11	15
154	10805	9.21	15
154	10940	9.31	15
154	11075	9.41	15
154	11210	9.51	15
154	11345	9.61	15
154	11480	9.71	15
154	11615	9.81	15
154	11750	9.91	15
154	11893	10.01	15
154	12028	10.11	15
154	12163	10.21	15
154	12298	10.31	15
154	12433	10.41	15
154	12568	10.51	15
154	12703	10.61	15
154	12838	10.71	15
154	12973	10.81	15
154	13108	10.91	15
154	13251	11.01	15
154	13386	11.11	15
154	13521	11.21	15
154	13656	11.31	15
154	13791	11.41	15
154	13926	11.51	15
154	14061	11.61	15
154	14196	11.71	15
154	14331	11.81	15
154	14466	11.91	15
155	255	1.11	0
155	379	1.21	0
155	502	1.31	0
155	626	1.41	0
155	750	1.51	0
155	873	1.61	0
155	996	1.71	0
155	1120	1.81	0
155	1243	1.91	0
155	1377	2.01	0
155	1500	2.11	0
155	1623	2.21	0
155	1746	2.31	0
155	1869	2.41	0
155	1992	2.51	0
155	2115	2.61	0
155	2238	2.71	0
155	2361	2.81	0
155	2484	2.91	0
155	2615	3.01	0
155	2738	3.11	0
155	2861	3.21	0
155	2984	3.31	0
155	3107	3.41	0
155	3230	3.51	0
155	3353	3.61	0
155	3476	3.71	0
155	3599	3.81	0
155	3722	3.91	0
155	3853	4.01	0
155	3976	4.11	0
155	4099	4.21	0
155	4222	4.31	0
155	4345	4.41	0
155	4468	4.51	0
155	4591	4.61	0
155	4714	4.71	0
155	4837	4.81	0
155	4960	4.91	0
155	5103	5.01	0
155	5238	5.11	0
155	5373	5.21	0
155	5508	5.31	0
155	5643	5.41	0
155	5778	5.51	0
155	5913	5.61	0
155	6048	5.71	0
155	6183	5.81	0
155	6318	5.91	0
155	6461	6.01	0
155	6596	6.11	0
155	6731	6.21	0
155	6866	6.31	0
155	7001	6.41	0
155	7136	6.51	0
155	7271	6.61	0
155	7406	6.71	0
155	7541	6.81	0
155	7676	6.91	0
155	7819	7.01	0
155	7954	7.11	0
155	8089	7.21	0
155	8224	7.31	0
155	8359	7.41	0
155	8494	7.51	0
155	8629	7.61	0
155	8764	7.71	0
155	8899	7.81	0
155	9034	7.91	0
155	9177	8.01	0
155	9312	8.11	0
155	9447	8.21	0
155	9582	8.31	0
155	9717	8.41	0
155	9852	8.51	0
155	9987	8.61	0
155	10122	8.71	0
155	10257	8.81	0
155	10392	8.91	0
155	10535	9.01	0
155	10670	9.11	0
155	10805	9.21	0
155	10940	9.31	0
155	11075	9.41	0
155	11210	9.51	0
155	11345	9.61	0
155	11480	9.71	0
155	11615	9.81	0
155	11750	9.91	0
155	11893	10.01	0
155	12028	10.11	0
155	12163	10.21	0
155	12298	10.31	0
155	12433	10.41	0
155	12568	10.51	0
155	12703	10.61	0
155	12838	10.71	0
155	12973	10.81	0
155	13108	10.91	0
155	13251	11.01	0
155	13386	11.11	0
155	13521	11.21	0
155	13656	11.31	0
155	13791	11.41	0
155	13926	11.51	0
155	14061	11.61	0
155	14196	11.71	0
155	14331	11.81	0
155	14466	11.91	0
156	255	1.11	2
156	379	1.21	2
156	502	1.31	2
156	626	1.41	2
156	750	1.51	2
156	873	1.61	2
156	996	1.71	2
156	1120	1.81	2
156	1243	1.91	2
156	1377	2.01	2
156	1500	2.11	2
156	1623	2.21	2
156	1746	2.31	2
156	1869	2.41	2
156	1992	2.51	2
156	2115	2.61	2
156	2238	2.71	2
156	2361	2.81	2
156	2484	2.91	2
156	2615	3.01	2
156	2738	3.11	2
156	2861	3.21	2
156	2984	3.31	2
156	3107	3.41	2
156	3230	3.51	2
156	3353	3.61	2
156	3476	3.71	2
156	3599	3.81	2
156	3722	3.91	2
156	3853	4.01	2
156	3976	4.11	2
156	4099	4.21	2
156	4222	4.31	2
156	4345	4.41	2
156	4468	4.51	2
156	4591	4.61	2
156	4714	4.71	2
156	4837	4.81	2
156	4960	4.91	2
156	5103	5.01	2
156	5238	5.11	2
156	5373	5.21	2
156	5508	5.31	2
156	5643	5.41	2
156	5778	5.51	2
156	5913	5.61	2
156	6048	5.71	2
156	6183	5.81	2
156	6318	5.91	2
156	6461	6.01	2
156	6596	6.11	2
156	6731	6.21	2
156	6866	6.31	2
156	7001	6.41	2
156	7136	6.51	2
156	7271	6.61	2
156	7406	6.71	2
156	7541	6.81	2
156	7676	6.91	2
156	7819	7.01	2
156	7954	7.11	2
156	8089	7.21	2
156	8224	7.31	2
156	8359	7.41	2
156	8494	7.51	2
156	8629	7.61	2
156	8764	7.71	2
156	8899	7.81	2
156	9034	7.91	2
156	9177	8.01	2
156	9312	8.11	2
156	9447	8.21	2
156	9582	8.31	2
156	9717	8.41	2
156	9852	8.51	2
156	9987	8.61	2
156	10122	8.71	2
156	10257	8.81	2
156	10392	8.91	2
156	10535	9.01	2
156	10670	9.11	2
156	10805	9.21	2
156	10940	9.31	2
156	11075	9.41	2
156	11210	9.51	2
156	11345	9.61	2
156	11480	9.71	2
156	11615	9.81	2
156	11750	9.91	2
156	11893	10.01	2
156	12028	10.11	2
156	12163	10.21	2
156	12298	10.31	2
156	12433	10.41	2
156	12568	10.51	2
156	12703	10.61	2
156	12838	10.71	2
156	12973	10.81	2
156	13108	10.91	2
156	13251	11.01	2
156	13386	11.11	2
156	13521	11.21	2
156	13656	11.31	2
156	13791	11.41	2
156	13926	11.51	2
156	14061	11.61	2
156	14196	11.71	2
156	14331	11.81	2
156	14466	11.91	2
157	255	1.11	27.777778625488
157	379	1.21	27.777778625488
157	502	1.31	27.777778625488
157	626	1.41	27.777778625488
157	750	1.51	27.777778625488
157	873	1.61	27.777778625488
157	996	1.71	27.777778625488
157	1120	1.81	27.777778625488
157	1243	1.91	27.777778625488
157	1377	2.01	27.777778625488
157	1500	2.11	27.777778625488
157	1623	2.21	27.777778625488
157	1746	2.31	27.777778625488
157	1869	2.41	27.777778625488
157	1992	2.51	27.777778625488
157	2115	2.61	27.777778625488
157	2238	2.71	27.777778625488
157	2361	2.81	27.777778625488
157	2484	2.91	27.777778625488
157	2615	3.01	27.777778625488
157	2738	3.11	27.777778625488
157	2861	3.21	27.777778625488
157	2984	3.31	27.777778625488
157	3107	3.41	27.777778625488
157	3230	3.51	27.777778625488
157	3353	3.61	27.777778625488
157	3476	3.71	27.777778625488
157	3599	3.81	27.777778625488
157	3722	3.91	27.777778625488
157	3853	4.01	27.777778625488
157	3976	4.11	27.777778625488
157	4099	4.21	27.777778625488
157	4222	4.31	27.777778625488
157	4345	4.41	27.777778625488
157	4468	4.51	27.777778625488
157	4591	4.61	27.777778625488
157	4714	4.71	27.777778625488
157	4837	4.81	27.777778625488
157	4960	4.91	27.777778625488
157	5103	5.01	27.777778625488
157	5238	5.11	27.777778625488
157	5373	5.21	27.777778625488
157	5508	5.31	27.777778625488
157	5643	5.41	27.777778625488
157	5778	5.51	27.777778625488
157	5913	5.61	27.777778625488
157	6048	5.71	27.777778625488
157	6183	5.81	27.777778625488
157	6318	5.91	27.777778625488
157	6461	6.01	27.777778625488
157	6596	6.11	27.777778625488
157	6731	6.21	27.777778625488
157	6866	6.31	27.777778625488
157	7001	6.41	27.777778625488
157	7136	6.51	27.777778625488
157	7271	6.61	27.777778625488
157	7406	6.71	27.777778625488
157	7541	6.81	27.777778625488
157	7676	6.91	27.777778625488
157	7819	7.01	27.777778625488
157	7954	7.11	27.777778625488
157	8089	7.21	27.777778625488
157	8224	7.31	27.777778625488
157	8359	7.41	27.777778625488
157	8494	7.51	27.777778625488
157	8629	7.61	27.777778625488
157	8764	7.71	27.777778625488
157	8899	7.81	27.777778625488
157	9034	7.91	27.777778625488
157	9177	8.01	27.777778625488
157	9312	8.11	27.777778625488
157	9447	8.21	27.777778625488
157	9582	8.31	27.777778625488
157	9717	8.41	27.777778625488
157	9852	8.51	27.777778625488
157	9987	8.61	27.777778625488
157	10122	8.71	27.777778625488
157	10257	8.81	27.777778625488
157	10392	8.91	27.777778625488
157	10535	9.01	27.777778625488
157	10670	9.11	27.777778625488
157	10805	9.21	27.777778625488
157	10940	9.31	27.777778625488
157	11075	9.41	27.777778625488
157	11210	9.51	27.777778625488
157	11345	9.61	27.777778625488
157	11480	9.71	27.777778625488
157	11615	9.81	27.777778625488
157	11750	9.91	27.777778625488
157	11893	10.01	27.777778625488
157	12028	10.11	27.777778625488
157	12163	10.21	27.777778625488
157	12298	10.31	27.777778625488
157	12433	10.41	27.777778625488
157	12568	10.51	27.777778625488
157	12703	10.61	27.777778625488
157	12838	10.71	27.777778625488
157	12973	10.81	27.777778625488
157	13108	10.91	27.777778625488
157	13251	11.01	27.777778625488
157	13386	11.11	27.777778625488
157	13521	11.21	27.777778625488
157	13656	11.31	27.777778625488
157	13791	11.41	27.777778625488
157	13926	11.51	27.777778625488
157	14061	11.61	27.777778625488
157	14196	11.71	27.777778625488
157	14331	11.81	27.777778625488
157	14466	11.91	27.777778625488
158	255	1.11	94.217642974854
158	379	1.21	96.995420837402
158	502	1.31	99.773198699951
158	626	1.41	102.5509765625
158	750	1.51	105.32875442505
158	873	1.61	108.1065322876
158	996	1.71	110.88431015015
158	1120	1.81	113.6620880127
158	1243	1.91	116.43986587524
158	1377	2.01	119.21764373779
158	1500	2.11	121.99542160034
158	1623	2.21	124.77319946289
158	1746	2.31	127.55097732544
158	1869	2.41	130.32875518799
158	1992	2.51	133.10653305054
158	2115	2.61	135.88431091309
158	2238	2.71	138.66208877564
158	2361	2.81	141.43986663818
158	2484	2.91	144.21764450073
158	2615	3.01	146.99542236328
158	2738	3.11	149.77320022583
158	2861	3.21	152.55097808838
158	2984	3.31	155.32875595093
158	3107	3.41	158.10653381348
158	3230	3.51	160.88431167603
158	3353	3.61	163.66208953858
158	3476	3.71	166.43986740112
158	3599	3.81	169.21764526367
158	3722	3.91	171.99542312622
158	3853	4.01	174.77320098877
158	3976	4.11	177.55097885132
158	4099	4.21	180.32875671387
158	4222	4.31	183.10653457642
158	4345	4.41	185.88431243897
158	4468	4.51	188.66209030152
158	4591	4.61	191.43986816406
158	4714	4.71	194.21764602661
158	4837	4.81	196.99542388916
158	4960	4.91	199.77320175171
158	5103	5.01	202.55097961426
158	5238	5.11	205.32875747681
158	5373	5.21	208.10653533936
158	5508	5.31	210.88431320191
158	5643	5.41	213.66209106446
158	5778	5.51	216.439868927
158	5913	5.61	219.21764678955
158	6048	5.71	221.9954246521
158	6183	5.81	224.77320251465
158	6318	5.91	227.5509803772
158	6461	6.01	230.32875823975
158	6596	6.11	233.1065361023
158	6731	6.21	235.88431396485
158	6866	6.31	238.66209182739
158	7001	6.41	241.43986968994
158	7136	6.51	244.21764755249
158	7271	6.61	246.99542541504
158	7406	6.71	249.77320327759
158	7541	6.81	252.55098114014
158	7676	6.91	255.32875900269
158	7819	7.01	258.10653686524
158	7954	7.11	260.88431472779
158	8089	7.21	263.66209259033
158	8224	7.31	266.43987045288
158	8359	7.41	269.21764831543
158	8494	7.51	271.99542617798
158	8629	7.61	274.77320404053
158	8764	7.71	277.55098190308
158	8899	7.81	280.32875976563
158	9034	7.91	283.10653762818
158	9177	8.01	285.88431549073
158	9312	8.11	288.66209335327
158	9447	8.21	291.43987121582
158	9582	8.31	294.21764907837
158	9717	8.41	296.99542694092
158	9852	8.51	299.77320480347
158	9987	8.61	302.55098266602
158	10122	8.71	305.32876052857
158	10257	8.81	308.10653839112
158	10392	8.91	310.88431625367
158	10535	9.01	313.66209411621
158	10670	9.11	316.43987197876
158	10805	9.21	319.21764984131
158	10940	9.31	321.99542770386
158	11075	9.41	324.77320556641
158	11210	9.51	327.55098342896
158	11345	9.61	330.32876129151
158	11480	9.71	333.10653915406
158	11615	9.81	335.88431701661
158	11750	9.91	338.66209487915
158	11893	10.01	341.4398727417
158	12028	10.11	344.21765060425
158	12163	10.21	346.9954284668
158	12298	10.31	349.77320632935
158	12433	10.41	352.5509841919
158	12568	10.51	355.32876205445
158	12703	10.61	358.106539917
158	12838	10.71	360.88431777955
158	12973	10.81	363.66209564209
158	13108	10.91	366.43987350464
158	13251	11.01	369.21765136719
158	13386	11.11	371.99542922974
158	13521	11.21	374.77320709229
158	13656	11.31	377.55098495484
158	13791	11.41	380.32876281739
158	13926	11.51	383.10654067994
158	14061	11.61	385.88431854249
158	14196	11.71	388.66209640503
158	14331	11.81	391.43987426758
158	14466	11.91	394.21765213013
159	255	1.11	36.55
159	379	1.21	36.55
159	502	1.31	36.55
159	626	1.41	36.55
159	750	1.51	36.55
159	873	1.61	36.55
159	996	1.71	36.55
159	1120	1.81	36.55
159	1243	1.91	36.55
159	1377	2.01	36.55
159	1500	2.11	36.55
159	1623	2.21	36.55
159	1746	2.31	36.55
159	1869	2.41	36.55
159	1992	2.51	36.55
159	2115	2.61	36.55
159	2238	2.71	36.55
159	2361	2.81	36.55
159	2484	2.91	36.55
159	2615	3.01	36.55
159	2738	3.11	36.55
159	2861	3.21	36.55
159	2984	3.31	36.55
159	3107	3.41	36.55
159	3230	3.51	36.55
159	3353	3.61	36.55
159	3476	3.71	36.55
159	3599	3.81	36.55
159	3722	3.91	36.55
159	3853	4.01	36.55
159	3976	4.11	36.55
159	4099	4.21	36.55
159	4222	4.31	36.55
159	4345	4.41	36.55
159	4468	4.51	36.55
159	4591	4.61	36.55
159	4714	4.71	36.55
159	4837	4.81	36.55
159	4960	4.91	36.55
159	5103	5.01	36.55
159	5238	5.11	36.55
159	5373	5.21	36.55
159	5508	5.31	36.55
159	5643	5.41	36.55
159	5778	5.51	36.55
159	5913	5.61	36.55
159	6048	5.71	36.55
159	6183	5.81	36.55
159	6318	5.91	36.55
159	6461	6.01	36.55
159	6596	6.11	36.55
159	6731	6.21	36.55
159	6866	6.31	36.55
159	7001	6.41	36.55
159	7136	6.51	36.55
159	7271	6.61	36.55
159	7406	6.71	36.55
159	7541	6.81	36.55
159	7676	6.91	36.55
159	7819	7.01	36.55
159	7954	7.11	36.55
159	8089	7.21	36.55
159	8224	7.31	36.55
159	8359	7.41	36.55
159	8494	7.51	36.55
159	8629	7.61	36.55
159	8764	7.71	36.55
159	8899	7.81	36.55
159	9034	7.91	36.55
159	9177	8.01	36.55
159	9312	8.11	36.55
159	9447	8.21	36.55
159	9582	8.31	36.55
159	9717	8.41	36.55
159	9852	8.51	36.55
159	9987	8.61	36.55
159	10122	8.71	36.55
159	10257	8.81	36.55
159	10392	8.91	36.55
159	10535	9.01	36.55
159	10670	9.11	36.55
159	10805	9.21	36.55
159	10940	9.31	36.55
159	11075	9.41	36.55
159	11210	9.51	36.55
159	11345	9.61	36.55
159	11480	9.71	36.55
159	11615	9.81	36.55
159	11750	9.91	36.55
159	11893	10.01	36.55
159	12028	10.11	36.55
159	12163	10.21	36.55
159	12298	10.31	36.55
159	12433	10.41	36.55
159	12568	10.51	36.55
159	12703	10.61	36.55
159	12838	10.71	36.55
159	12973	10.81	36.55
159	13108	10.91	36.55
159	13251	11.01	36.55
159	13386	11.11	36.55
159	13521	11.21	36.55
159	13656	11.31	36.55
159	13791	11.41	36.55
159	13926	11.51	36.55
159	14061	11.61	36.55
159	14196	11.71	36.55
159	14331	11.81	36.55
159	14466	11.91	36.55
160	255	1.11	0
160	379	1.21	0
160	502	1.31	0
160	626	1.41	0
160	750	1.51	0
160	873	1.61	0
160	996	1.71	0
160	1120	1.81	0
160	1243	1.91	0
160	1377	2.01	0
160	1500	2.11	0
160	1623	2.21	0
160	1746	2.31	0
160	1869	2.41	0
160	1992	2.51	0
160	2115	2.61	0
160	2238	2.71	0
160	2361	2.81	0
160	2484	2.91	0
160	2615	3.01	0
160	2738	3.11	0
160	2861	3.21	0
160	2984	3.31	0
160	3107	3.41	0
160	3230	3.51	0
160	3353	3.61	0
160	3476	3.71	0
160	3599	3.81	0
160	3722	3.91	0
160	3853	4.01	0
160	3976	4.11	0
160	4099	4.21	0
160	4222	4.31	0
160	4345	4.41	0
160	4468	4.51	0
160	4591	4.61	0
160	4714	4.71	0
160	4837	4.81	0
160	4960	4.91	0
160	5103	5.01	0
160	5238	5.11	0
160	5373	5.21	0
160	5508	5.31	0
160	5643	5.41	0
160	5778	5.51	0
160	5913	5.61	0
160	6048	5.71	0
160	6183	5.81	0
160	6318	5.91	0
160	6461	6.01	0
160	6596	6.11	0
160	6731	6.21	0
160	6866	6.31	0
160	7001	6.41	0
160	7136	6.51	0
160	7271	6.61	0
160	7406	6.71	0
160	7541	6.81	0
160	7676	6.91	0
160	7819	7.01	0
160	7954	7.11	0
160	8089	7.21	0
160	8224	7.31	0
160	8359	7.41	0
160	8494	7.51	0
160	8629	7.61	0
160	8764	7.71	0
160	8899	7.81	0
160	9034	7.91	0
160	9177	8.01	0
160	9312	8.11	0
160	9447	8.21	0
160	9582	8.31	0
160	9717	8.41	0
160	9852	8.51	0
160	9987	8.61	0
160	10122	8.71	0
160	10257	8.81	0
160	10392	8.91	0
160	10535	9.01	0
160	10670	9.11	0
160	10805	9.21	0
160	10940	9.31	0
160	11075	9.41	0
160	11210	9.51	0
160	11345	9.61	0
160	11480	9.71	0
160	11615	9.81	0
160	11750	9.91	0
160	11893	10.01	0
160	12028	10.11	0
160	12163	10.21	0
160	12298	10.31	0
160	12433	10.41	0
160	12568	10.51	0
160	12703	10.61	0
160	12838	10.71	0
160	12973	10.81	0
160	13108	10.91	0
160	13251	11.01	0
160	13386	11.11	0
160	13521	11.21	0
160	13656	11.31	0
160	13791	11.41	0
160	13926	11.51	0
160	14061	11.61	0
160	14196	11.71	0
160	14331	11.81	0
160	14466	11.91	0
161	255	1.11	0
161	379	1.21	0
161	502	1.31	0
161	626	1.41	0
161	750	1.51	0
161	873	1.61	0
161	996	1.71	0
161	1120	1.81	0
161	1243	1.91	0
161	1377	2.01	0
161	1500	2.11	0
161	1623	2.21	0
161	1746	2.31	0
161	1869	2.41	0
161	1992	2.51	0
161	2115	2.61	0
161	2238	2.71	0
161	2361	2.81	0
161	2484	2.91	0
161	2615	3.01	0
161	2738	3.11	0
161	2861	3.21	0
161	2984	3.31	0
161	3107	3.41	0
161	3230	3.51	0
161	3353	3.61	0
161	3476	3.71	0
161	3599	3.81	0
161	3722	3.91	0
161	3853	4.01	0
161	3976	4.11	0
161	4099	4.21	0
161	4222	4.31	0
161	4345	4.41	0
161	4468	4.51	0
161	4591	4.61	0
161	4714	4.71	0
161	4837	4.81	0
161	4960	4.91	0
161	5103	5.01	0
161	5238	5.11	0
161	5373	5.21	0
161	5508	5.31	0
161	5643	5.41	0
161	5778	5.51	0
161	5913	5.61	0
161	6048	5.71	0
161	6183	5.81	0
161	6318	5.91	0
161	6461	6.01	0
161	6596	6.11	0
161	6731	6.21	0
161	6866	6.31	0
161	7001	6.41	0
161	7136	6.51	0
161	7271	6.61	0
161	7406	6.71	0
161	7541	6.81	0
161	7676	6.91	0
161	7819	7.01	0
161	7954	7.11	0
161	8089	7.21	0
161	8224	7.31	0
161	8359	7.41	0
161	8494	7.51	0
161	8629	7.61	0
161	8764	7.71	0
161	8899	7.81	0
161	9034	7.91	0
161	9177	8.01	0
161	9312	8.11	0
161	9447	8.21	0
161	9582	8.31	0
161	9717	8.41	0
161	9852	8.51	0
161	9987	8.61	0
161	10122	8.71	0
161	10257	8.81	0
161	10392	8.91	0
161	10535	9.01	0
161	10670	9.11	0
161	10805	9.21	0
161	10940	9.31	0
161	11075	9.41	0
161	11210	9.51	0
161	11345	9.61	0
161	11480	9.71	0
161	11615	9.81	0
161	11750	9.91	0
161	11893	10.01	0
161	12028	10.11	0
161	12163	10.21	0
161	12298	10.31	0
161	12433	10.41	0
161	12568	10.51	0
161	12703	10.61	0
161	12838	10.71	0
161	12973	10.81	0
161	13108	10.91	0
161	13251	11.01	0
161	13386	11.11	0
161	13521	11.21	0
161	13656	11.31	0
161	13791	11.41	0
161	13926	11.51	0
161	14061	11.61	0
161	14196	11.71	0
161	14331	11.81	0
161	14466	11.91	0
162	1345	2	2
162	2585	3	2
162	3823	4	2
162	5073	5	2
162	6419	6	2
162	7777	7	2
162	9135	8	2
162	10493	9	2
162	11851	10	2
162	13209	11	2
163	1345	2	0.004473
163	2585	3	0.00497
163	3823	4	0.00497
163	5073	5	0.00497
163	6419	6	0.00497
163	7777	7	0.00497
163	9135	8	0.00497
163	10493	9	0.00497
163	11851	10	0.00497
163	13209	11	0.00497
164	1345	2	0
164	2585	3	0
164	3823	4	0
164	5073	5	0
164	6419	6	0
164	7777	7	0
164	9135	8	0
164	10493	9	0
164	11851	10	0
164	13209	11	0
