version 2
run Sinusoidal-2-20170531-20:06:00-22672
attr beaconInterval 0.1
attr busLength 6
attr carLength 4
attr configname Sinusoidal
attr controller 1
attr datetime 20170531-20:06:00
attr experiment Sinusoidal
attr headway 0.1
attr inifile omnetpp.ini
attr iterationvars "$nCars=3, $platoonSize=8, $nLanes=1, $nTruck=3, $nBus=2, $carLength=4, $truckLength=5, $busLength=6, $ploegH=0.5, $controller=1, $sController=\"CACC\", $headway=0.1, $leaderHeadway=1.2, $leaderSpeed=100, $beaconInterval=0.1, $priority=4, $packetSize=200, $0=5, $1=0"
attr iterationvars2 "$nCars=3, $platoonSize=8, $nLanes=1, $nTruck=3, $nBus=2, $carLength=4, $truckLength=5, $busLength=6, $ploegH=0.5, $controller=1, $sController=\"CACC\", $headway=0.1, $leaderHeadway=1.2, $leaderSpeed=100, $beaconInterval=0.1, $priority=4, $packetSize=200, $0=5, $1=0, $repetition=0"
attr leaderHeadway 1.2
attr leaderSpeed 100
attr measurement "$nCars=3, $platoonSize=8, $nLanes=1, $nTruck=3, $nBus=2, $carLength=4, $truckLength=5, $busLength=6, $ploegH=0.5, $controller=1, $sController=\"CACC\", $headway=0.1, $leaderHeadway=1.2, $leaderSpeed=100, $beaconInterval=0.1, $priority=4, $packetSize=200, $0=5, $1=0"
attr nBus 2
attr nCars 3
attr nLanes 1
attr nTruck 3
attr network scenario
attr packetSize 200
attr platoonSize 8
attr ploegH 0.5
attr priority 4
attr processid 22672
attr repetition 0
attr replication #0
attr resultdir results
attr runnumber 2
attr sController "\"CACC\""
attr seedset 0
attr truckLength 5
param **.coreDebug false
param **.debug false
param **.headway "${headway = 0.3, 1.2, 0.1, 0.1, 0.1 ! controller}s"
param **.lengthOfBus "${busLength = 6}"
param **.lengthOfCar "${carLength = 4}"
param **.lengthOfTruck "${truckLength = 5}"
param **.numberOfBus "${nBus = 2}"
param **.numberOfCars "${nCars = 3}"
param **.numberOfCarsPerPlatoon "${platoonSize = 8}"
param **.numberOfLanes "${nLanes = 1}"
param **.numberOfTrucks "${nTruck = 3}"
param **.numericController "${controller = 0, 0, 1, 2, 3}"
param **.seed ${repetition}
param **.traffic.busLength ${busLength}
param **.traffic.carLength ${carLength}
param **.traffic.nBus ${nBus}
param **.traffic.nCars ${nCars}
param **.traffic.nLanes ${nLanes}
param **.traffic.nTruck ${nTruck}
param **.traffic.platoonInsertDistance "${2, 2, 5, 2, 15 ! controller}m"
param **.traffic.platoonInsertHeadway "${0.3, 1.2, 0, 0.5, 0.8 ! controller}s"
param **.traffic.platoonInsertSpeed ${leaderSpeed}kmph
param **.traffic.platoonInsertTime "1 s"
param **.traffic.platoonLeaderHeadway ${leaderHeadway}s
param **.traffic.platoonSize ${platoonSize}
param **.traffic.platooningVType "\"vtypeauto1\""
param **.traffic.platooningVTypeBus "\"vtypeauto3\""
param **.traffic.platooningVTypeTruck "\"vtypeauto2\""
param **.traffic.truckLength ${truckLength}
param **.traffic.vehicleTypeInPlatoon "\"1,1,3,2,2,2,1,3\""
param **.traffic_type "\"Heterogenous\""
param *.**.nic.mac1609_4.bitrate 6Mbps
param *.**.nic.mac1609_4.txPower 20mW
param *.**.nic.mac1609_4.useServiceChannel false
param *.**.nic.phy80211p.analogueModels "xmldoc(\"config.xml\")"
param *.**.nic.phy80211p.decider "xmldoc(\"config.xml\")"
param *.**.nic.phy80211p.maxTXPower 20mW
param *.**.nic.phy80211p.sensitivity -94dBm
param *.**.nic.phy80211p.thermalNoise -95dBm
param *.**.nic.phy80211p.usePropagationDelay true
param *.**.nic.phy80211p.useThermalNoise true
param *.annotations.draw false
param *.connectionManager.drawMaxIntfDist false
param *.connectionManager.maxInterfDist 2600m
param *.connectionManager.sendDirect true
param *.manager.autoShutdown true
param *.manager.commandLine "\"sumo-gui --remote-port $port --seed $seed --configuration-file $configFile\""
param *.manager.configFile "\"./sumocfg/freeway.sumo.cfg\""
param *.manager.host "\"localhost\""
param *.manager.margin 25
param *.manager.moduleDisplayString "\"\""
param *.manager.moduleName "\"node\""
param *.manager.moduleType "\"Car\""
param *.manager.updateInterval 0.01s
param *.node[*].appl.simulationDuration "60 s"
param *.node[*].appl_type "\"SimplePlatooningApp\""
param *.node[*].helper.nBus ${nBus}
param *.node[*].helper.nCars ${nCars}
param *.node[*].helper.nLanes ${nLanes}
param *.node[*].helper.nTruck ${nTruck}
param *.node[*].helper.platoonSize ${platoonSize}
param *.node[*].helper.vehicleType "\"1,1,3,2,2,2,1,3\""
param *.node[*].helper_type "\"PositionHelper\""
param *.node[*].mobility.x 0
param *.node[*].mobility.y 0
param *.node[*].mobility.z 1.895
param *.node[*].prot.beaconingInterval "${beaconInterval = 0.1}s"
param *.node[*].prot.packetSize "${packetSize = 200}"
param *.node[*].prot.priority "${priority = 4}"
param *.node[*].prot.useControllerAcceleration true
param *.node[*].protocol_type "\"SimplePlatooningBeaconing\""
param *.node[*].scenario.accHeadway ${headway}s
param *.node[*].scenario.caccC1 0.5
param *.node[*].scenario.caccOmegaN "0.2 Hz"
param *.node[*].scenario.caccXi 1
param *.node[*].scenario.controller "${sController = \"ACC\", \"ACC\", \"CACC\", \"PLOEG\", \"CONSENSUS\" ! controller}"
param *.node[*].scenario.engineTau "0.5 s"
param *.node[*].scenario.leaderHeadway "${leaderHeadway = 1.2}s"
param *.node[*].scenario.leaderOscillationFrequency "0.2 Hz"
param *.node[*].scenario.leaderSpeed "${leaderSpeed = 100}kmph"
param *.node[*].scenario.oscillationAmplitude "10 kmph"
param *.node[*].scenario.ploegH "${ploegH = 0.5}s"
param *.node[*].scenario.ploegKd 0.7
param *.node[*].scenario.ploegKp 0.2
param *.node[*].scenario.startOscillating "5 s"
param *.node[*].scenario.useRealisticEngine false
param *.node[*].scenario_type "\"SinusoidalScenario\""
param *.node[*].unicast.packetLossRate 0
param *.obstacles.debug false
param *.playgroundSizeX 65000m
param *.playgroundSizeY 25000m
param *.playgroundSizeZ 50m
param *.world.use2D false
param *.world.useTorus false

vector 0  scenario.node[0].appl  distance  ETV
vector 1  scenario.node[0].appl  relativeSpeed  ETV
vector 2  scenario.node[0].appl  nodeId  ETV
vector 6  scenario.node[0].appl  acceleration  ETV
vector 7  scenario.node[0].appl  controllerAcceleration  ETV
vector 3  scenario.node[0].appl  speed  ETV
vector 4  scenario.node[0].appl  posx  ETV
vector 5  scenario.node[0].appl  posy  ETV
vector 22  scenario.node[1].appl  distance  ETV
vector 23  scenario.node[1].appl  relativeSpeed  ETV
vector 24  scenario.node[1].appl  nodeId  ETV
vector 28  scenario.node[1].appl  acceleration  ETV
vector 29  scenario.node[1].appl  controllerAcceleration  ETV
vector 25  scenario.node[1].appl  speed  ETV
vector 26  scenario.node[1].appl  posx  ETV
vector 27  scenario.node[1].appl  posy  ETV
vector 44  scenario.node[2].appl  distance  ETV
vector 45  scenario.node[2].appl  relativeSpeed  ETV
vector 46  scenario.node[2].appl  nodeId  ETV
vector 50  scenario.node[2].appl  acceleration  ETV
vector 51  scenario.node[2].appl  controllerAcceleration  ETV
vector 47  scenario.node[2].appl  speed  ETV
vector 48  scenario.node[2].appl  posx  ETV
vector 49  scenario.node[2].appl  posy  ETV
vector 66  scenario.node[3].appl  distance  ETV
vector 67  scenario.node[3].appl  relativeSpeed  ETV
vector 68  scenario.node[3].appl  nodeId  ETV
vector 72  scenario.node[3].appl  acceleration  ETV
vector 73  scenario.node[3].appl  controllerAcceleration  ETV
vector 69  scenario.node[3].appl  speed  ETV
vector 70  scenario.node[3].appl  posx  ETV
vector 71  scenario.node[3].appl  posy  ETV
vector 88  scenario.node[4].appl  distance  ETV
vector 89  scenario.node[4].appl  relativeSpeed  ETV
vector 90  scenario.node[4].appl  nodeId  ETV
vector 94  scenario.node[4].appl  acceleration  ETV
vector 95  scenario.node[4].appl  controllerAcceleration  ETV
vector 91  scenario.node[4].appl  speed  ETV
vector 92  scenario.node[4].appl  posx  ETV
vector 93  scenario.node[4].appl  posy  ETV
vector 110  scenario.node[5].appl  distance  ETV
vector 111  scenario.node[5].appl  relativeSpeed  ETV
vector 112  scenario.node[5].appl  nodeId  ETV
vector 116  scenario.node[5].appl  acceleration  ETV
vector 117  scenario.node[5].appl  controllerAcceleration  ETV
vector 113  scenario.node[5].appl  speed  ETV
vector 114  scenario.node[5].appl  posx  ETV
vector 115  scenario.node[5].appl  posy  ETV
vector 132  scenario.node[6].appl  distance  ETV
vector 133  scenario.node[6].appl  relativeSpeed  ETV
vector 134  scenario.node[6].appl  nodeId  ETV
vector 138  scenario.node[6].appl  acceleration  ETV
vector 139  scenario.node[6].appl  controllerAcceleration  ETV
vector 135  scenario.node[6].appl  speed  ETV
vector 136  scenario.node[6].appl  posx  ETV
vector 137  scenario.node[6].appl  posy  ETV
vector 154  scenario.node[7].appl  distance  ETV
vector 155  scenario.node[7].appl  relativeSpeed  ETV
vector 156  scenario.node[7].appl  nodeId  ETV
vector 160  scenario.node[7].appl  acceleration  ETV
vector 161  scenario.node[7].appl  controllerAcceleration  ETV
vector 157  scenario.node[7].appl  speed  ETV
vector 158  scenario.node[7].appl  posx  ETV
vector 159  scenario.node[7].appl  posy  ETV
vector 168  scenario.node[7].prot  frontDelay  ETV
vector 166  scenario.node[7].prot  frontDelayId  ETV
vector 146  scenario.node[6].prot  frontDelay  ETV
vector 144  scenario.node[6].prot  frontDelayId  ETV
vector 80  scenario.node[3].prot  frontDelay  ETV
vector 78  scenario.node[3].prot  frontDelayId  ETV
vector 35  scenario.node[1].prot  leaderDelay  ETV
vector 33  scenario.node[1].prot  leaderDelayId  ETV
vector 36  scenario.node[1].prot  frontDelay  ETV
vector 34  scenario.node[1].prot  frontDelayId  ETV
vector 145  scenario.node[6].prot  leaderDelay  ETV
vector 143  scenario.node[6].prot  leaderDelayId  ETV
vector 79  scenario.node[3].prot  leaderDelay  ETV
vector 77  scenario.node[3].prot  leaderDelayId  ETV
vector 101  scenario.node[4].prot  leaderDelay  ETV
vector 99  scenario.node[4].prot  leaderDelayId  ETV
vector 123  scenario.node[5].prot  leaderDelay  ETV
vector 121  scenario.node[5].prot  leaderDelayId  ETV
vector 57  scenario.node[2].prot  leaderDelay  ETV
vector 55  scenario.node[2].prot  leaderDelayId  ETV
vector 167  scenario.node[7].prot  leaderDelay  ETV
vector 165  scenario.node[7].prot  leaderDelayId  ETV
vector 124  scenario.node[5].prot  frontDelay  ETV
vector 122  scenario.node[5].prot  frontDelayId  ETV
vector 102  scenario.node[4].prot  frontDelay  ETV
vector 100  scenario.node[4].prot  frontDelayId  ETV
vector 58  scenario.node[2].prot  frontDelay  ETV
vector 56  scenario.node[2].prot  frontDelayId  ETV
vector 8  scenario.node[0].prot  nodeId  ETV
vector 9  scenario.node[0].prot  busyTime  ETV
vector 10  scenario.node[0].prot  collisions  ETV
vector 30  scenario.node[1].prot  nodeId  ETV
vector 31  scenario.node[1].prot  busyTime  ETV
vector 32  scenario.node[1].prot  collisions  ETV
vector 52  scenario.node[2].prot  nodeId  ETV
vector 53  scenario.node[2].prot  busyTime  ETV
vector 54  scenario.node[2].prot  collisions  ETV
vector 74  scenario.node[3].prot  nodeId  ETV
vector 75  scenario.node[3].prot  busyTime  ETV
vector 76  scenario.node[3].prot  collisions  ETV
vector 96  scenario.node[4].prot  nodeId  ETV
vector 97  scenario.node[4].prot  busyTime  ETV
vector 98  scenario.node[4].prot  collisions  ETV
vector 118  scenario.node[5].prot  nodeId  ETV
vector 119  scenario.node[5].prot  busyTime  ETV
vector 120  scenario.node[5].prot  collisions  ETV
vector 140  scenario.node[6].prot  nodeId  ETV
vector 141  scenario.node[6].prot  busyTime  ETV
vector 142  scenario.node[6].prot  collisions  ETV
vector 162  scenario.node[7].prot  nodeId  ETV
vector 163  scenario.node[7].prot  busyTime  ETV
vector 164  scenario.node[7].prot  collisions  ETV
7	233	1.11	-8.430731206488e-07
7	790	1.21	-8.247038785214e-07
7	1346	1.31	-7.948429328053e-07
7	1903	1.41	-7.5609037608615e-07
7	2460	1.51	-7.1073863239235e-07
7	3016	1.61	-6.6078666094427e-07
7	3572	1.71	-6.079568990458e-07
7	4129	1.81	-5.5371389606762e-07
7	4685	1.91	-4.9928438983216e-07
7	5252	2.01	-4.4567811841034e-07
7	5808	2.11	-3.9370868165634e-07
7	6364	2.21	-3.4401411852514e-07
7	6920	2.31	-2.9707706872273e-07
7	7476	2.41	-2.5324398578164e-07
7	8032	2.51	-2.1274344064182e-07
7	8588	2.61	-1.7570315336002e-07
7	9144	2.71	-1.4216582755466e-07
7	9700	2.81	-1.1210364547765e-07
7	10256	2.91	-8.5431519636359e-08
7	10820	3.01	-6.2018816748832e-08
7	11376	3.11	-4.1699859565369e-08
7	11932	3.21	-2.4283316690799e-08
7	12488	3.31	-9.5601571103998e-09
7	13044	3.41	2.6894362292751e-09
7	13600	3.51	1.2690140493987e-08
7	14156	3.61	2.0666576006079e-08
7	14712	3.71	2.6839355626862e-08
7	15268	3.81	3.1421798496467e-08
7	15824	3.91	3.4617407607129e-08
7	16388	4.01	3.6617997523081e-08
7	16944	4.11	3.7602347902066e-08
7	17500	4.21	3.7735404134764e-08
7	18056	4.31	3.7167730226884e-08
7	18612	4.41	3.6035434192172e-08
7	19168	4.51	3.446024621212e-08
7	19724	4.61	3.2549973383311e-08
7	20280	4.71	3.0399071704323e-08
7	20836	4.81	2.8089345960325e-08
7	21392	4.91	2.5690727767369e-08
7	21957	5.01	2.326218861981e-08
7	22514	5.11	0.34814789186464
7	23071	5.21	0.68726937161622
7	23628	5.31	1.0064706311115
7	24185	5.41	1.2963311698934
7	24742	5.51	1.5
7	25299	5.61	1.5
7	25856	5.71	1.5
7	26413	5.81	1.5
7	26970	5.91	1.5
7	27535	6.01	1.5
7	28092	6.11	1.5
7	28649	6.21	1.5
7	29206	6.31	1.5
7	29763	6.41	1.5
7	30320	6.51	1.4919234148491
7	30877	6.61	1.226499329248
7	31434	6.71	0.92305384082895
7	31991	6.81	0.58908102066068
7	32548	6.91	0.2323562172788
7	33113	7.01	-0.13919559696193
7	33670	7.11	-0.51762846464532
7	34227	7.21	-0.89509993840359
7	34784	7.31	-1.2639902875456
7	35341	7.41	-1.5
7	35898	7.51	-1.5
7	36455	7.61	-1.5
7	37012	7.71	-1.5
7	37569	7.81	-1.5
7	38126	7.91	-1.5
7	38691	8.01	-1.5
7	39248	8.11	-1.5
7	39805	8.21	-1.5
7	40362	8.31	-1.5
7	40919	8.41	-1.5
7	41476	8.51	-1.5
7	42033	8.61	-1.5
7	42590	8.71	-1.5
7	43147	8.81	-1.5
7	43704	8.91	-1.5
7	44269	9.01	-1.5
7	44826	9.11	-1.5
7	45383	9.21	-1.5
7	45940	9.31	-1.5
7	46497	9.41	-1.5
7	47054	9.51	-1.1784535904302
7	47611	9.61	-0.73985166419522
7	48168	9.71	-0.29046662059022
7	48725	9.81	0.15868205669937
7	49282	9.91	0.59737147691163
7	49855	10.01	1.0162504341895
7	50412	10.11	1.4069035498921
7	50969	10.21	1.5
7	51526	10.31	1.5
7	52083	10.41	1.5
7	52640	10.51	1.5
7	53197	10.61	1.5
7	53754	10.71	1.5
7	54311	10.81	1.5
7	54868	10.91	1.5
7	55441	11.01	1.5
7	55998	11.11	1.5
7	56555	11.21	1.5
7	57112	11.31	1.5
7	57669	11.41	1.5
7	58226	11.51	1.5
7	58783	11.61	1.5
7	59340	11.71	1.5
7	59897	11.81	1.5
7	60454	11.91	1.142056952341
7	61027	12.01	0.73271074174567
7	61584	12.11	0.30763491703603
7	62141	12.21	-0.1229018340005
7	62698	12.31	-0.54917422864573
7	63255	12.41	-0.96209331715876
7	63812	12.51	-1.353290027524
7	64369	12.61	-1.5
7	64926	12.71	-1.5
7	65483	12.81	-1.5
7	66040	12.91	-1.5
7	66613	13.01	-1.5
7	67170	13.11	-1.5
7	67727	13.21	-1.5
7	68284	13.31	-1.5
7	68841	13.41	-1.5
7	69398	13.51	-1.5
7	69955	13.61	-1.5
7	70512	13.71	-1.5
7	71069	13.81	-1.5
7	71626	13.91	-1.5
7	72199	14.01	-1.5
7	72756	14.11	-1.5
7	73313	14.21	-1.5
7	73870	14.31	-1.5
7	74427	14.41	-1.3008305793136
7	74984	14.51	-0.8883573602082
7	75541	14.61	-0.45792464374534
7	76098	14.71	-0.020297800477731
7	76655	14.81	0.41435934757689
7	77212	14.91	0.83657487484984
7	77785	15.01	1.2376491838973
7	78342	15.11	1.5
7	78899	15.21	1.5
7	79456	15.31	1.5
7	80013	15.41	1.5
7	80570	15.51	1.5
7	81127	15.61	1.5
7	81684	15.71	1.5
7	82241	15.81	1.5
7	82798	15.91	1.5
7	83371	16.01	1.5
7	83928	16.11	1.5
7	84485	16.21	1.5
7	85042	16.31	1.5
7	85599	16.41	1.5
7	86156	16.51	1.5
7	86713	16.61	1.5
7	87270	16.71	1.5
7	87827	16.81	1.5
7	88384	16.91	1.2451238477401
7	88957	17.01	0.83347870135556
7	89514	17.11	0.40470958877082
7	90071	17.21	-0.03059806221717
7	90628	17.31	-0.46243980386486
7	91185	17.41	-0.8814833530446
7	91742	17.51	-1.2791500631707
7	92299	17.61	-1.5
7	92856	17.71	-1.5
7	93413	17.81	-1.5
7	93970	17.91	-1.5
7	94543	18.01	-1.5
7	95100	18.11	-1.5
7	95657	18.21	-1.5
7	96214	18.31	-1.5
7	96771	18.41	-1.5
7	97328	18.51	-1.5
7	97885	18.61	-1.5
7	98442	18.71	-1.5
7	98999	18.81	-1.5
7	99556	18.91	-1.5
7	100129	19.01	-1.5
7	100686	19.11	-1.5
7	101243	19.21	-1.5
7	101800	19.31	-1.5
7	102357	19.41	-1.2657245815118
7	102914	19.51	-0.85377693481412
7	103471	19.61	-0.42439560037995
7	104028	19.71	0.011767371269134
7	104585	19.81	0.44464851836491
7	105142	19.91	0.86486384400621
7	105715	20.01	1.2637899041136
7	106272	20.11	1.5
7	106829	20.21	1.5
7	107386	20.31	1.5
7	107943	20.41	1.5
7	108500	20.51	1.5
7	109057	20.61	1.5
7	109614	20.71	1.5
7	110171	20.81	1.5
7	110728	20.91	1.5
7	111301	21.01	1.5
7	111858	21.11	1.5
7	112415	21.21	1.5
7	112972	21.31	1.5
7	113529	21.41	1.5
7	114086	21.51	1.5
7	114643	21.61	1.5
7	115200	21.71	1.5
7	115757	21.81	1.5
7	116314	21.91	1.258091551777
7	116887	22.01	0.8462549163489
7	117444	22.11	0.41709956367568
7	118001	22.21	-0.018747163542116
7	118558	22.31	-0.45124369149361
7	119115	22.41	-0.87102520538537
7	119672	22.51	-1.2694848794591
7	120229	22.61	-1.5
7	120786	22.71	-1.5
7	121343	22.81	-1.5
7	121900	22.91	-1.5
7	122473	23.01	-1.5
7	123030	23.11	-1.5
7	123587	23.21	-1.5
7	124144	23.31	-1.5
7	124701	23.41	-1.5
7	125258	23.51	-1.5
7	125815	23.61	-1.5
7	126372	23.71	-1.5
7	126929	23.81	-1.5
7	127486	23.91	-1.5
7	128059	24.01	-1.5
7	128616	24.11	-1.5
7	129173	24.21	-1.5
7	129730	24.31	-1.5
7	130287	24.41	-1.2609239651112
7	130844	24.51	-0.8490461568448
7	131401	24.61	-0.41980696481052
7	131958	24.71	0.016157099446737
7	132515	24.81	0.44879633966076
7	133072	24.91	0.86873882266934
7	133645	25.01	1.26737155572
7	134202	25.11	1.5
7	134759	25.21	1.5
7	135316	25.31	1.5
7	135873	25.41	1.5
7	136430	25.51	1.5
7	136987	25.61	1.5
7	137544	25.71	1.5
7	138101	25.81	1.5
7	138658	25.91	1.5
7	139231	26.01	1.5
7	139788	26.11	1.5
7	140345	26.21	1.5
7	140902	26.31	1.5
7	141459	26.41	1.5
7	142016	26.51	1.5
7	142573	26.61	1.5
7	143130	26.71	1.5
7	143687	26.81	1.5
7	144244	26.91	1.2598728518634
7	144817	27.01	0.84801032251441
7	145374	27.11	0.41880224309152
7	145931	27.21	-0.017118277441824
7	146488	27.31	-0.44970455708397
7	147045	27.41	-0.86958730431876
7	147602	27.51	-1.2681558149826
7	148159	27.61	-1.5
7	148716	27.71	-1.5
7	149273	27.81	-1.5
7	149830	27.91	-1.5
7	150403	28.01	-1.5
7	150960	28.11	-1.5
7	151517	28.21	-1.5
7	152074	28.31	-1.5
7	152631	28.41	-1.5
7	153188	28.51	-1.5
7	153745	28.61	-1.5
7	154302	28.71	-1.5
7	154859	28.81	-1.5
7	155416	28.91	-1.5
7	155989	29.01	-1.5
7	156546	29.11	-1.5
7	157103	29.21	-1.5
7	157660	29.31	-1.5
7	158217	29.41	-1.2602629232513
7	158774	29.51	-0.84839472385599
7	159331	29.61	-0.41917509845245
7	159888	29.71	0.016761581287305
7	160445	29.81	0.44936751475852
7	161002	29.91	0.86927243012183
7	161575	30.01	1.267864773911
7	162132	30.11	1.5
7	162689	30.21	1.5
7	163246	30.31	1.5
7	163803	30.41	1.5
7	164360	30.51	1.5
7	164917	30.61	1.5
7	165474	30.71	1.5
7	166031	30.81	1.5
7	166588	30.91	1.5
7	167161	31.01	1.5
7	167718	31.11	1.5
7	168275	31.21	1.5
7	168832	31.31	1.5
7	169389	31.41	1.5
7	169946	31.51	1.5
7	170503	31.61	1.5
7	171060	31.71	1.5
7	171617	31.81	1.5
7	172174	31.91	1.2601181665204
7	172747	32.01	0.8482520712972
7	173304	32.11	0.41903673064365
7	173861	32.21	-0.016893952363397
7	174418	32.31	-0.44949259223633
7	174975	32.41	-0.8693892809368
7	175532	32.51	-1.2679727801776
7	176089	32.61	-1.5
7	176646	32.71	-1.5
7	177203	32.81	-1.5
7	177760	32.91	-1.5
7	178333	33.01	-1.5
7	178890	33.11	-1.5
7	179447	33.21	-1.5
7	180004	33.31	-1.5
7	180561	33.41	-1.5
7	181118	33.51	-1.5
7	181675	33.61	-1.5
7	182232	33.71	-1.5
7	182789	33.81	-1.5
7	183346	33.91	-1.5
7	183919	34.01	-1.5
7	184476	34.11	-1.5
7	185033	34.21	-1.5
7	185590	34.31	-1.5
7	186147	34.41	-1.2601718862041
7	186704	34.51	-0.84830501011592
7	187261	34.61	-0.41908807937801
7	187818	34.71	0.016844829035612
7	188375	34.81	0.44944617558609
7	188932	34.91	0.86934591722741
7	189505	35.01	1.2679326987083
7	190062	35.11	1.5
7	190619	35.21	1.5
7	191176	35.31	1.5
7	191733	35.41	1.5
7	192290	35.51	1.5
7	192847	35.61	1.5
7	193404	35.71	1.5
7	193961	35.81	1.5
7	194518	35.91	1.5
7	195091	36.01	1.5
7	195648	36.11	1.5
7	196205	36.21	1.5
7	196762	36.31	1.5
7	197319	36.41	1.5
7	197876	36.51	1.5
7	198433	36.61	1.5
7	198990	36.71	1.5
7	199547	36.81	1.5
7	200104	36.91	1.2601519506571
7	200677	37.01	0.84828536435039
7	201234	37.11	0.41906902369788
7	201791	37.21	-0.016863058860221
7	202348	37.31	-0.44946340095391
7	202905	37.41	-0.86936200963904
7	203462	37.51	-1.2679475730701
7	204019	37.61	-1.5
7	204576	37.71	-1.5
7	205133	37.81	-1.5
7	205690	37.91	-1.5
7	206263	38.01	-1.5
7	206820	38.11	-1.5
7	207377	38.21	-1.5
7	207934	38.31	-1.5
7	208491	38.41	-1.5
7	209048	38.51	-1.5
7	209605	38.61	-1.5
7	210162	38.71	-1.5
7	210719	38.81	-1.5
7	211276	38.91	-1.5
7	211849	39.01	-1.5
7	212406	39.11	-1.5
7	212963	39.21	-1.5
7	213520	39.31	-1.5
7	214077	39.41	-1.2601593488036
7	214634	39.51	-0.84829265495814
7	215191	39.61	-0.41907609532306
7	215748	39.71	0.01685629371266
7	216305	39.81	0.44945700856354
7	216862	39.91	0.86935603769241
7	217435	40.01	1.2679420531458
7	217992	40.11	1.5
7	218549	40.21	1.5
7	219106	40.31	1.5
7	219663	40.41	1.5
7	220220	40.51	1.5
7	220777	40.61	1.5
7	221334	40.71	1.5
7	221891	40.81	1.5
7	222448	40.91	1.5
7	223021	41.01	1.5
7	223578	41.11	1.5
7	224135	41.21	1.5
7	224692	41.31	1.5
7	225249	41.41	1.5
7	225806	41.51	1.5
7	226363	41.61	1.5
7	226920	41.71	1.5
7	227477	41.81	1.5
7	228034	41.91	1.2601566033284
7	228607	42.01	0.84828994939093
7	229164	42.11	0.41907347102099
7	229721	42.21	-0.016858804279881
7	230278	42.31	-0.44945938079935
7	230835	42.41	-0.86935825390018
7	231392	42.51	-1.2679441016066
7	231949	42.61	-1.5
7	232506	42.71	-1.5
7	233063	42.81	-1.5
7	233620	42.91	-1.5
7	234193	43.01	-1.5
7	234750	43.11	-1.5
7	235307	43.21	-1.5
7	235864	43.31	-1.5
7	236421	43.41	-1.5
7	236978	43.51	-1.5
7	237535	43.61	-1.5
7	238092	43.71	-1.5
7	238649	43.81	-1.5
7	239206	43.91	-1.5
7	239779	44.01	-1.5
7	240336	44.11	-1.5
7	240893	44.21	-1.5
7	241450	44.31	-1.5
7	242007	44.41	-1.2601576221815
7	242564	44.51	-0.84829095343405
7	243121	44.61	-0.41907444490634
7	243678	44.71	0.016857872601886
7	244235	44.81	0.44945850045656
7	244792	44.91	0.86935743145978
7	245365	45.01	1.2679433414175
7	245922	45.11	1.5
7	246479	45.21	1.5
7	247036	45.31	1.5
7	247593	45.41	1.5
7	248150	45.51	1.5
7	248707	45.61	1.5
7	249264	45.71	1.5
7	249821	45.81	1.5
7	250378	45.91	1.5
7	250951	46.01	1.5
7	251508	46.11	1.5
7	252065	46.21	1.5
7	252622	46.31	1.5
7	253179	46.41	1.5
7	253736	46.51	1.5
7	254293	46.61	1.5
7	254850	46.71	1.5
7	255407	46.81	1.5
7	255964	46.91	1.2601572440828
7	256537	47.01	0.84829058083134
7	257094	47.11	0.41907408349529
7	257651	47.21	-0.016858218349689
7	258208	47.31	-0.44945882715379
7	258765	47.41	-0.86935773666939
7	259322	47.51	-1.2679436235256
7	259879	47.61	-1.5
7	260436	47.71	-1.5
7	260993	47.81	-1.5
7	261550	47.91	-1.5
7	262123	48.01	-1.5
7	262680	48.11	-1.5
7	263237	48.21	-1.5
7	263794	48.31	-1.5
7	264351	48.41	-1.5
7	264908	48.51	-1.5
7	265465	48.61	-1.5
7	266022	48.71	-1.5
7	266579	48.81	-1.5
7	267136	48.91	-1.5
7	267709	49.01	-1.5
7	268266	49.11	-1.5
7	268823	49.21	-1.5
7	269380	49.31	-1.5
7	269937	49.41	-1.2601573843952
7	270494	49.51	-0.84829071910406
7	271051	49.61	-0.41907421761473
7	271608	49.71	0.016858090042941
7	272165	49.81	0.44945870591676
7	272722	49.91	0.86935762340643
7	273295	50.01	1.2679435188356
7	273852	50.11	1.5
7	274409	50.21	1.5
7	274966	50.31	1.5
7	275523	50.41	1.5
7	276080	50.51	1.5
7	276637	50.61	1.5
7	277194	50.71	1.5
7	277751	50.81	1.5
7	278308	50.91	1.5
7	278881	51.01	1.5
7	279438	51.11	1.5
7	279995	51.21	1.5
7	280552	51.31	1.5
7	281109	51.41	1.5
7	281666	51.51	1.5
7	282223	51.61	1.5
7	282780	51.71	1.5
7	283337	51.81	1.5
7	283894	51.91	1.2601573323258
7	284467	52.01	0.84829066779156
7	285024	52.11	0.41907416784353
7	285581	52.21	-0.016858137657042
7	286138	52.31	-0.44945875090733
7	286695	52.41	-0.86935766543784
7	287252	52.51	-1.2679435576857
7	287809	52.61	-1.5
7	288366	52.71	-1.5
7	288923	52.81	-1.5
7	289480	52.91	-1.5
7	290053	53.01	-1.5
7	290610	53.11	-1.5
7	291167	53.21	-1.5
7	291724	53.31	-1.5
7	292281	53.41	-1.5
7	292838	53.51	-1.5
7	293395	53.61	-1.5
7	293952	53.71	-1.5
7	294509	53.81	-1.5
7	295066	53.91	-1.5
7	295639	54.01	-1.5
7	296196	54.11	-1.5
7	296753	54.21	-1.5
7	297310	54.31	-1.5
7	297867	54.41	-1.2601573516497
7	298424	54.51	-0.84829068683466
7	298981	54.61	-0.41907418631465
7	299538	54.71	0.016858119986427
7	300095	54.81	0.4494587342103
7	300652	54.91	0.86935764983892
7	301225	55.01	1.2679435432673
7	301782	55.11	1.5
7	302339	55.21	1.5
7	302896	55.31	1.5
7	303453	55.41	1.5
7	304010	55.51	1.5
7	304567	55.61	1.5
7	305124	55.71	1.5
7	305681	55.81	1.5
7	306238	55.91	1.5
7	306811	56.01	1.5
7	307368	56.11	1.5
7	307925	56.21	1.5
7	308482	56.31	1.5
7	309039	56.41	1.5
7	309596	56.51	1.5
7	310153	56.61	1.5
7	310710	56.71	1.5
7	311267	56.81	1.5
7	311824	56.91	1.2601573444777
7	312397	57.01	0.84829067976694
7	312954	57.11	0.41907417945927
7	313511	57.21	-0.016858126544683
7	314068	57.31	-0.44945874040715
7	314625	57.41	-0.86935765562822
7	315182	57.51	-1.2679435486184
7	315739	57.61	-1.5
7	316296	57.71	-1.5
7	316853	57.81	-1.5
7	317410	57.91	-1.5
7	317983	58.01	-1.5
7	318540	58.11	-1.5
7	319097	58.21	-1.5
7	319654	58.31	-1.5
7	320211	58.41	-1.5
7	320768	58.51	-1.5
7	321325	58.61	-1.5
7	321882	58.71	-1.5
7	322439	58.81	-1.5
7	322996	58.91	-1.5
7	323569	59.01	-1.5
7	324126	59.11	-1.5
7	324683	59.21	-1.5
7	325240	59.31	-1.5
7	325797	59.41	-1.2601573471392
7	326354	59.51	-0.84829068238975
7	326911	59.61	-0.41907418200326
7	327468	59.71	0.016858124110961
7	328025	59.81	0.44945873810754
7	328582	59.91	0.86935765347993
6	233	1.11	-1.2391545567425e-07
6	790	1.21	-2.514333630188e-07
6	1346	1.31	-3.5153284727585e-07
6	1903	1.41	-4.2734420446777e-07
6	2460	1.51	-4.8187125401e-07
6	3016	1.61	-5.1795971955926e-07
6	3572	1.71	-5.3827413637464e-07
6	4129	1.81	-5.4528506154838e-07
6	4685	1.91	-5.4125663950799e-07
6	5252	2.01	-5.2824375984528e-07
6	5808	2.11	-5.080941889446e-07
6	6364	2.21	-4.8245141215375e-07
6	6920	2.31	-4.5276244975412e-07
6	7476	2.41	-4.202860282021e-07
6	8032	2.51	-3.8610643571246e-07
6	8588	2.61	-3.5114133822844e-07
6	9144	2.71	-3.1616025353287e-07
6	9700	2.81	-2.8179307776099e-07
6	10256	2.91	-2.4854536206931e-07
6	10820	3.01	-2.1681287876163e-07
6	11376	3.11	-1.8689298997288e-07
6	11932	3.21	-1.5899530581009e-07
6	12488	3.31	-1.3325838210676e-07
6	13044	3.41	-1.0975469422192e-07
6	13600	3.51	-8.8505203166278e-08
6	14156	3.61	-6.948575048682e-08
6	14712	3.71	-5.263665059374e-08
6	15268	3.81	-3.7870506730542e-08
6	15824	3.91	-2.5077895315917e-08
6	16388	4.01	-1.4133405557004e-08
6	16944	4.11	-4.9016790626411e-09
6	17500	4.21	2.7593927143243e-09
6	18056	4.31	8.9940499492513e-09
6	18612	4.41	1.3947598631603e-08
6	19168	4.51	1.7761081494427e-08
6	19724	4.61	2.0570567471623e-08
6	20280	4.71	2.2507151697937e-08
6	20836	4.81	2.3691626438449e-08
6	21392	4.91	2.4239099616352e-08
6	21957	5.01	2.4253310471067e-08
6	22514	5.11	0.0068264526728257
6	23071	5.21	0.074594836732089
6	23628	5.31	0.19005134681258
6	24185	5.41	0.34050272642077
6	24742	5.51	0.51301638947834
6	25299	5.61	0.6902545856434
6	25856	5.71	0.83572672600098
6	26413	5.81	0.95506454902292
6	26970	5.91	1.0529631292492
6	27535	6.01	1.133274063098
6	28092	6.11	1.1991570011418
6	28649	6.21	1.2532039573571
6	29206	6.31	1.2975412860019
6	29763	6.41	1.333913338177
6	30320	6.51	1.3635927249268
6	30877	6.61	1.3702053615898
6	31434	6.71	1.3272611926745
6	31991	6.81	1.2373810921854
6	32548	6.91	1.1040433755532
6	33113	7.01	0.93147092012096
6	33670	7.11	0.72451590565734
6	34227	7.21	0.48854318346834
6	34784	7.31	0.2293132962599
6	35341	7.41	-0.044839398398011
6	35898	7.51	-0.30626147443016
6	36455	7.61	-0.52071863005345
6	37012	7.71	-0.69664819306503
6	37569	7.81	-0.84097171097959
6	38126	7.91	-0.95936726353223
6	38691	8.01	-1.0564928537818
6	39248	8.11	-1.1361696666178
6	39805	8.21	-1.2015324045674
6	40362	8.31	-1.2551526155189
6	40919	8.41	-1.2991398644115
6	41476	8.51	-1.3352247292573
6	42033	8.61	-1.3648268867847
6	42590	8.71	-1.3891109663845
6	43147	8.81	-1.4090323697992
6	43704	8.91	-1.4253748592211
6	44269	9.01	-1.4387813926344
6	44826	9.11	-1.4497794195275
6	45383	9.21	-1.4588016321909
6	45940	9.31	-1.4662029890104
6	46497	9.41	-1.4722746794938
6	47054	9.51	-1.4696249146823
6	47611	9.61	-1.3967850639141
6	48168	9.71	-1.2587757641274
6	48725	9.81	-1.0660952217858
6	49282	9.91	-0.82923335017639
6	49855	10.01	-0.55852907832801
6	50412	10.11	-0.26404116068406
6	50969	10.21	0.03943269874469
6	51526	10.31	0.30182609756224
6	52083	10.41	0.51708007617997
6	52640	10.51	0.69366331158065
6	53197	10.61	0.83852306852847
6	53754	10.71	0.95735852386056
6	54311	10.81	1.0548449876072
6	54868	10.91	1.1348178424026
6	55441	11.01	1.2004234378704
6	55998	11.11	1.2542428765748
6	56555	11.21	1.2983935616166
6	57112	11.31	1.3346125010283
6	57669	11.41	1.3643246463978
6	58226	11.51	1.3886989543376
6	58783	11.61	1.4086943764163
6	59340	11.71	1.4250975869238
6	59897	11.81	1.4385539327762
6	60454	11.91	1.4345627372837
6	61027	12.01	1.3623449188774
6	61584	12.11	1.2299875654499
6	62141	12.21	1.0461448397812
6	62698	12.31	0.81967864249357
6	63255	12.41	0.55952045905059
6	63812	12.51	0.27454262949682
6	64369	12.61	-0.02234164487227
6	64926	12.71	-0.28780548057448
6	65483	12.81	-0.50557828687161
6	66040	12.91	-0.68422783827593
6	66613	13.01	-0.83078269404453
6	67170	13.11	-0.95100872081275
6	67727	13.21	-1.0496359374716
6	68284	13.31	-1.1305446069798
6	68841	13.41	-1.1969178964556
6	69398	13.51	-1.2513671116345
6	69955	13.61	-1.2960344327361
6	70512	13.71	-1.3326771936619
6	71069	13.81	-1.3627370202897
6	71626	13.91	-1.3873965479586
6	72199	14.01	-1.4076259495578
6	72756	14.11	-1.4242211047666
6	73313	14.21	-1.4378349121291
6	73870	14.31	-1.4490029758537
6	74427	14.41	-1.4542593951845
6	74984	14.51	-1.4067454390027
6	75541	14.61	-1.2938574955285
6	76098	14.71	-1.1248409052222
6	76655	14.81	-0.90912582142266
6	77212	14.91	-0.65618298375618
6	77785	15.01	-0.37539052553193
6	78342	15.11	-0.078063005083351
6	78899	15.21	0.20543869668366
6	79456	15.31	0.43800883574043
6	80013	15.41	0.62879735391697
6	80570	15.51	0.78531039043881
6	81127	15.61	0.91370559385808
6	81684	15.71	1.0190343806951
6	82241	15.81	1.1054406719047
6	82798	15.91	1.1763239259967
6	83371	16.01	1.2344728829817
6	83928	16.11	1.2821752809831
6	84485	16.21	1.3213078620836
6	85042	16.31	1.3534102084598
6	85599	16.41	1.3797453137308
6	86156	16.51	1.4013492725667
6	86713	16.61	1.4190720434691
6	87270	16.71	1.4336108884482
6	87827	16.81	1.4455378052084
6	88384	16.91	1.4502949065335
6	88957	17.01	1.3935559567532
6	89514	17.11	1.2733368701447
6	90071	17.21	1.098674244054
6	90628	17.31	0.87879676591527
6	91185	17.41	0.62298329276125
6	91742	17.51	0.34043137853565
6	92299	17.61	0.043031849081743
6	92856	17.71	-0.23417644595263
6	93413	17.81	-0.46158379949546
6	93970	17.91	-0.64813703535336
6	94543	18.01	-0.80117566522588
6	95100	18.11	-0.92672064505699
6	95657	18.21	-1.0297112558188
6	96214	18.31	-1.1141994282603
6	96771	18.41	-1.1835091568827
6	97328	18.51	-1.2403672749226
6	97885	18.61	-1.2870107353905
6	98442	18.71	-1.3252746188858
6	98999	18.81	-1.3566643306586
6	99556	18.91	-1.382414827345
6	100129	19.01	-1.4035392035215
6	100686	19.11	-1.4208685496044
6	101243	19.21	-1.4350846492011
6	101800	19.31	-1.4467468023362
6	102357	19.41	-1.4517201941775
6	102914	19.51	-1.3984004323884
6	103471	19.61	-1.280899381009
6	104028	19.71	-1.1083308503771
6	104585	19.81	-0.88999806036796
6	105142	19.91	-0.63525086466818
6	105715	20.01	-0.35335363991322
6	106272	20.11	-0.055983891306965
6	106829	20.21	0.22355126013309
6	107386	20.31	0.45286744637245
6	107943	20.41	0.64098658988812
6	108500	20.51	0.79530980944469
6	109057	20.61	0.92190860023926
6	109614	20.71	1.0257637030335
6	110171	20.81	1.1109610600446
6	110728	20.91	1.1808525670222
6	111301	21.01	1.2381879459468
6	111858	21.11	1.2852229265704
6	112415	21.21	1.32380799296
6	112972	21.31	1.3554611865732
6	113529	21.41	1.3814278301393
6	114086	21.51	1.402729522043
6	114643	21.61	1.4202043287796
6	115200	21.71	1.4345397567766
6	115757	21.81	1.4462998007627
6	116314	21.91	1.4512038299461
6	116887	22.01	1.3966149622046
6	117444	22.11	1.2781048258542
6	118001	22.21	1.104758616826
6	118558	22.31	0.88585193073989
6	119115	22.41	0.63070830476128
6	119672	22.51	0.3485673438103
6	120229	22.61	0.051185654371366
6	120786	22.71	-0.22748748564538
6	121343	22.81	-0.45609652227974
6	121900	22.91	-0.64363555681837
6	122473	23.01	-0.79748288496262
6	123030	23.11	-0.92369127904597
6	123587	23.21	-1.0272261205628
6	124144	23.31	-1.1121607517783
6	124701	23.41	-1.1818367320963
6	125258	23.51	-1.238995304092
6	125815	23.61	-1.2858852414524
6	126372	23.71	-1.3243513218473
6	126929	23.81	-1.355906905502
6	127486	23.91	-1.3817934749046
6	128059	24.01	-1.403029478104
6	128616	24.11	-1.4204503972248
6	129173	24.21	-1.434741618608
6	129730	24.31	-1.4464653977726
6	130287	24.41	-1.4513952146881
6	130844	24.51	-1.3972773206763
6	131401	24.61	-1.2791416668563
6	131958	24.71	-1.1060840673021
6	132515	24.81	-0.88739036841652
6	133072	24.91	-0.63239387292597
6	133645	25.01	-0.35034337810913
6	134202	25.11	-0.052966136909305
6	134759	25.21	0.2260268698226
6	135316	25.31	0.45489830857264
6	135873	25.41	0.64265260424108
6	136430	25.51	0.79667652148672
6	136987	25.61	0.92302978013947
6	137544	25.71	1.026683461059
6	138101	25.81	1.1117155819772
6	138658	25.91	1.1814715378073
6	139231	26.01	1.2386957175785
6	139788	26.11	1.2856394761656
6	140345	26.21	1.3241497087126
6	140902	26.31	1.3557415125099
6	141459	26.41	1.381657795045
6	142016	26.51	1.4029181733619
6	142573	26.61	1.4203590885685
6	143130	26.71	1.4346667137069
6	143687	26.81	1.4464039496644
6	144244	26.91	1.4513241957726
6	144817	27.01	1.3970315218256
6	145374	27.11	1.2787568961965
6	145931	27.21	1.1055921925461
6	146488	27.31	0.88681945319387
6	147045	27.41	0.63176835684509
6	147602	27.51	0.34968428947479
6	148159	27.61	0.052305397195695
6	148716	27.71	-0.22656890652364
6	149273	27.81	-0.45534296745835
6	149830	27.91	-0.64301737940227
6	150403	28.01	-0.79697576417033
6	150960	28.11	-0.92327526336611
6	151517	28.21	-1.0268848428069
6	152074	28.31	-1.1118807851517
6	152631	28.41	-1.1816070619506
6	153188	28.51	-1.2388068945789
6	153745	28.61	-1.2857306800289
6	154302	28.71	-1.3242245276459
6	154859	28.81	-1.3558028900945
6	155416	28.91	-1.3817081460427
6	155989	29.01	-1.4029594787171
6	156546	29.11	-1.4203929733469
6	157103	29.21	-1.4346945110272
6	157660	29.31	-1.4464267531491
6	158217	29.41	-1.4513505510322
6	158774	29.51	-1.3971227384758
6	159331	29.61	-1.2788996857299
6	159888	29.71	-1.1057747287548
6	160445	29.81	-0.88703132157519
6	161002	29.91	-0.63200048778356
6	161575	30.01	-0.34992887929945
6	162132	30.11	-0.052550599747647
6	162689	30.21	0.2263677550264
6	163246	30.31	0.45517795317025
6	163803	30.41	0.64288201021157
6	164360	30.51	0.7968647142846
6	164917	30.61	0.92318416378134
6	165474	30.71	1.0268101094169
6	166031	30.81	1.1118194777417
6	166588	30.91	1.1815567685211
6	167161	31.01	1.2387656364492
6	167718	31.11	1.2856968339921
6	168275	31.21	1.3241967621074
6	168832	31.31	1.3557801126822
6	169389	31.41	1.3816894606308
6	169946	31.51	1.4029441501705
6	170503	31.61	1.4203803985996
6	171060	31.71	1.4346841953547
6	171617	31.81	1.4464182907037
6	172174	31.91	1.451340770512
6	172747	32.01	1.397088887688
6	173304	32.11	1.2788466960817
6	173861	32.21	1.105706988989
6	174418	32.31	0.88695269654693
6	174975	32.41	0.6319143432556
6	175532	32.51	0.34983811123936
6	176089	32.61	0.052459604302157
6	176646	32.71	-0.22644240298604
6	177203	32.81	-0.45523919049693
6	177760	32.91	-0.64293224614822
6	178333	33.01	-0.7969059252499
6	178890	33.11	-0.92321797112582
6	179447	33.21	-1.0268378432144
6	180004	33.31	-1.1118422291158
6	180561	33.41	-1.181575432572
6	181118	33.51	-1.2387809474717
6	181675	33.61	-1.2857093943634
6	182232	33.71	-1.3242070659867
6	182789	33.81	-1.3557885654517
6	183346	33.91	-1.3816963948457
6	183919	34.01	-1.4029498386424
6	184476	34.11	-1.4203850651278
6	185033	34.21	-1.434688023533
6	185590	34.31	-1.4464214311442
6	186147	34.41	-1.4513444000944
6	186704	34.51	-1.3971014498232
6	187261	34.61	-1.2788663607086
6	187818	34.71	-1.1057321274318
6	188375	34.81	-0.88698187454561
6	188932	34.91	-0.63194631176522
6	189505	35.01	-0.34987179555621
6	190062	35.11	-0.052493373001994
6	190619	35.21	0.22641470089013
6	191176	35.31	0.45521646512974
6	191733	35.41	0.64291360343276
6	192290	35.51	0.79689063173021
6	192847	35.61	0.9232054251143
6	193404	35.71	1.0268275511155
6	193961	35.81	1.1118337860104
6	194518	35.91	1.1815685062846
6	195091	36.01	1.2387752655037
6	195648	36.11	1.2857047331707
6	196205	36.21	1.324203242185
6	196762	36.31	1.3557854286034
6	197319	36.41	1.3816938215378
6	197876	36.51	1.4029477276342
6	198433	36.61	1.4203833333653
6	198990	36.71	1.4346866028841
6	199547	36.81	1.4464202657173
6	200104	36.91	1.4513430531448
6	200677	37.01	1.3970967879747
6	201234	37.11	1.2788590631025
6	201791	37.21	1.1057227984747
6	202348	37.31	0.8869710464964
6	202905	37.41	0.63193444814829
6	203462	37.51	0.34985929519813
6	204019	37.61	0.052480841329228
6	204576	37.71	-0.22642498122742
6	205133	37.81	-0.45522489858705
6	205690	37.91	-0.64292052180406
6	206263	38.01	-0.79689630720416
6	206820	38.11	-0.92321008097898
6	207377	38.21	-1.0268313705456
6	207934	38.31	-1.1118369192733
6	208491	38.41	-1.1815710766513
6	209048	38.51	-1.2387773740993
6	209605	38.61	-1.2857064629529
6	210162	38.71	-1.3242046612092
6	210719	38.81	-1.3557865926966
6	211276	38.91	-1.3816947764997
6	211849	39.01	-1.4029485110349
6	212406	39.11	-1.420383976027
6	212963	39.21	-1.4346871300905
6	213520	39.31	-1.4464206982101
6	214077	39.41	-1.4513435530016
6	214634	39.51	-1.3970985180016
6	215191	39.61	-1.2788617712673
6	215748	39.71	-1.1057262604808
6	216305	39.81	-0.88697506482056
6	216862	39.91	-0.63193885077553
6	217435	40.01	-0.34986393412169
6	217992	40.11	-0.052485491873711
6	218549	40.21	0.22642116616005
6	219106	40.31	0.45522176890245
6	219663	40.41	0.64291795437263
6	220220	40.51	0.79689420101552
6	220777	40.61	0.92320835317068
6	221334	40.71	1.0268299531418
6	221891	40.81	1.1118357565078
6	222448	40.91	1.1815701227786
6	223021	41.01	1.2387765915918
6	223578	41.11	1.2857058210248
6	224135	41.21	1.3242041346043
6	224692	41.31	1.3557861606976
6	225249	41.41	1.3816944221094
6	225806	41.51	1.4029482203117
6	226363	41.61	1.420383737533
6	226920	41.71	1.4346869344426
6	227477	41.81	1.4464205377106
6	228034	41.91	1.4513433675031
6	228607	42.01	1.3970978759829
6	229164	42.11	1.2788607662586
6	229721	42.21	1.1057249757194
6	230278	42.31	0.88697357360701
6	230835	42.41	0.6319372169461
6	231392	42.51	0.3498622126024
6	231949	42.61	0.052483766041789
6	232506	42.71	-0.22642258194381
6	233063	42.81	-0.45522293033819
6	233620	42.91	-0.64291890715467
6	234193	43.01	-0.79689498262923
6	234750	43.11	-0.92320899436622
6	235307	43.21	-1.0268304791456
6	235864	43.31	-1.111836188014
6	236421	43.41	-1.1815704767642
6	236978	43.51	-1.2387768819831
6	237535	43.61	-1.2857060592466
6	238092	43.71	-1.3242043300295
6	238649	43.81	-1.3557863210146
6	239206	43.91	-1.3816945536259
6	239779	44.01	-1.4029483282012
6	240336	44.11	-1.4203838260396
6	240893	44.21	-1.4346870070494
6	241450	44.31	-1.4464205972729
6	242007	44.41	-1.4513434363423
6	242564	44.51	-1.3970981142382
6	243121	44.61	-1.2788611392207
6	243678	44.71	-1.1057254524978
6	244235	44.81	-0.88697412700043
6	244792	44.91	-0.63193782326394
6	245365	45.01	-0.34986285146203
6	245922	45.11	-0.052484406502273
6	246479	45.21	0.22642205654293
6	247036	45.31	0.45522249932652
6	247593	45.41	0.64291855357439
6	248150	45.51	0.7968946925704
6	248707	45.61	0.92320875641683
6	249264	45.71	1.0268302839439
6	249821	45.81	1.1118360278807
6	250378	45.91	1.1815703453994
6	250951	46.01	1.2387767742183
6	251508	46.11	1.285705970842
6	252065	46.21	1.3242042575069
6	252622	46.31	1.3557862615201
6	253179	46.41	1.3816945048191
6	253736	46.51	1.4029482881629
6	254293	46.61	1.4203837931944
6	254850	46.71	1.4346869801042
6	255407	46.81	1.4464205751686
6	255964	46.91	1.4513434107954
6	256537	47.01	1.3970980258208
6	257094	47.11	1.2788610008133
6	257651	47.21	1.1057252755645
6	258208	47.31	0.88697392163581
6	258765	47.41	0.63193759825886
6	259322	47.51	0.34986261438021
6	259879	47.61	0.052484168826084
6	260436	47.71	-0.22642225152048
6	260993	47.81	-0.45522265927609
6	261550	47.91	-0.64291868478925
6	262123	48.01	-0.79689480021266
6	262680	48.11	-0.92320884472166
6	263237	48.21	-1.0268303563844
6	263794	48.31	-1.1118360873073
6	264351	48.41	-1.1815703941497
6	264908	48.51	-1.2387768142112
6	265465	48.61	-1.2857060036499
6	266022	48.71	-1.3242042844208
6	266579	48.81	-1.3557862835995
6	267136	48.91	-1.3816945229319
6	267709	49.01	-1.402948303021
6	268266	49.11	-1.4203838053835
6	268823	49.21	-1.434686990104
6	269380	49.31	-1.4464205833722
6	269937	49.41	-1.4513434202772
6	270494	49.51	-1.3970980586329
6	271051	49.61	-1.278861052177
6	271608	49.71	-1.105725341225
6	272165	49.81	-0.88697399784721
6	272722	49.91	-0.63193768175829
6	273295	50.01	-0.34986270236175
6	273852	50.11	-0.05248425702824
6	274409	50.21	0.22642217916413
6	274966	50.31	0.45522259991877
6	275523	50.41	0.6429186360954
6	276080	50.51	0.79689476026594
6	276637	50.61	0.92320881195107
6	277194	50.71	1.0268303295014
6	277751	50.81	1.1118360652539
6	278308	50.91	1.1815703760583
6	278881	51.01	1.2387767993697
6	279438	51.11	1.2857059914751
6	279995	51.21	1.3242042744334
6	280552	51.31	1.3557862754059
6	281109	51.41	1.3816945162102
6	281666	51.51	1.4029482975072
6	282223	51.61	1.4203838008605
6	282780	51.71	1.4346869863935
6	283337	51.81	1.4464205803286
6	283894	51.91	1.451343416759
6	284467	52.01	1.3970980464567
6	285024	52.11	1.2788610331157
6	285581	52.21	1.1057253168584
6	286138	52.31	0.88697396956547
6	286695	52.41	0.63193765077223
6	287252	52.51	0.34986266971266
6	287809	52.61	0.052484224297444
6	288366	52.71	-0.22642220601448
6	288923	52.81	-0.45522262194524
6	289480	52.91	-0.64291865416521
6	290053	53.01	-0.79689477508964
6	290610	53.11	-0.9232088241113
6	291167	53.21	-1.0268303394767
6	291724	53.31	-1.1118360734379
6	292281	53.41	-1.1815703827718
6	292838	53.51	-1.2387768048768
6	293395	53.61	-1.2857059959927
6	293952	53.71	-1.3242042781389
6	294509	53.81	-1.3557862784456
6	295066	53.91	-1.3816945187042
6	295639	54.01	-1.4029482995529
6	296196	54.11	-1.4203838025381
6	296753	54.21	-1.4346869877695
6	297310	54.31	-1.4464205814569
6	297867	54.41	-1.4513434180639
6	298424	54.51	-1.397098050975
6	298981	54.61	-1.2788610401895
6	299538	54.71	-1.1057253259011
6	300095	54.81	-0.88697398006019
6	300652	54.91	-0.63193766227059
6	301225	55.01	-0.34986268182813
6	301782	55.11	-0.052484236443462
6	302339	55.21	0.22642219605018
6	302896	55.31	0.4552226137708
6	303453	55.41	0.6429186474584
6	304010	55.51	0.79689476958791
6	304567	55.61	0.92320881959758
6	305124	55.71	1.0268303357741
6	305681	55.81	1.1118360704
6	306238	55.91	1.18157038028
6	306811	56.01	1.2387768028326
6	307368	56.11	1.2857059943155
6	307925	56.21	1.3242042767637
6	308482	56.31	1.355786277318
6	309039	56.41	1.3816945177794
6	309596	56.51	1.4029482987947
6	310153	56.61	1.420383801916
6	310710	56.71	1.4346869872593
6	311267	56.81	1.4464205810384
6	311824	56.91	1.4513434175793
6	312397	57.01	1.3970980492978
6	312954	57.11	1.2788610375637
6	313511	57.21	1.1057253225449
6	314068	57.31	0.886973976165
6	314625	57.41	0.63193765800307
6	315182	57.51	0.34986267733181
6	315739	57.61	0.052484231935068
6	316296	57.71	-0.22642219974927
6	316853	57.81	-0.45522261680553
6	317410	57.91	-0.64291864994814
6	317983	58.01	-0.79689477163036
6	318540	58.11	-0.92320882127339
6	319097	58.21	-1.026830337149
6	319654	58.31	-1.1118360715276
6	320211	58.41	-1.1815703812051
6	320768	58.51	-1.2387768035918
6	321325	58.61	-1.2857059949379
6	321882	58.71	-1.3242042772738
6	322439	58.81	-1.3557862777361
6	322996	58.91	-1.3816945181215
6	323569	59.01	-1.4029482990757
6	324126	59.11	-1.4203838021466
6	324683	59.21	-1.4346869874483
6	325240	59.31	-1.4464205811937
6	325797	59.41	-1.4513434177591
6	326354	59.51	-1.3970980499199
6	326911	59.61	-1.2788610385382
6	327468	59.71	-1.1057253237905
6	328025	59.81	-0.88697397761095
6	328582	59.91	-0.63193765958722
5	233	1.11	36.55
5	790	1.21	36.55
5	1346	1.31	36.55
5	1903	1.41	36.55
5	2460	1.51	36.55
5	3016	1.61	36.55
5	3572	1.71	36.55
5	4129	1.81	36.55
5	4685	1.91	36.55
5	5252	2.01	36.55
5	5808	2.11	36.55
5	6364	2.21	36.55
5	6920	2.31	36.55
5	7476	2.41	36.55
5	8032	2.51	36.55
5	8588	2.61	36.55
5	9144	2.71	36.55
5	9700	2.81	36.55
5	10256	2.91	36.55
5	10820	3.01	36.55
5	11376	3.11	36.55
5	11932	3.21	36.55
5	12488	3.31	36.55
5	13044	3.41	36.55
5	13600	3.51	36.55
5	14156	3.61	36.55
5	14712	3.71	36.55
5	15268	3.81	36.55
5	15824	3.91	36.55
5	16388	4.01	36.55
5	16944	4.11	36.55
5	17500	4.21	36.55
5	18056	4.31	36.55
5	18612	4.41	36.55
5	19168	4.51	36.55
5	19724	4.61	36.55
5	20280	4.71	36.55
5	20836	4.81	36.55
5	21392	4.91	36.55
5	21957	5.01	36.55
5	22514	5.11	36.55
5	23071	5.21	36.55
5	23628	5.31	36.55
5	24185	5.41	36.55
5	24742	5.51	36.55
5	25299	5.61	36.55
5	25856	5.71	36.55
5	26413	5.81	36.55
5	26970	5.91	36.55
5	27535	6.01	36.55
5	28092	6.11	36.55
5	28649	6.21	36.55
5	29206	6.31	36.55
5	29763	6.41	36.55
5	30320	6.51	36.55
5	30877	6.61	36.55
5	31434	6.71	36.55
5	31991	6.81	36.55
5	32548	6.91	36.55
5	33113	7.01	36.55
5	33670	7.11	36.55
5	34227	7.21	36.55
5	34784	7.31	36.55
5	35341	7.41	36.55
5	35898	7.51	36.55
5	36455	7.61	36.55
5	37012	7.71	36.55
5	37569	7.81	36.55
5	38126	7.91	36.55
5	38691	8.01	36.55
5	39248	8.11	36.55
5	39805	8.21	36.55
5	40362	8.31	36.55
5	40919	8.41	36.55
5	41476	8.51	36.55
5	42033	8.61	36.55
5	42590	8.71	36.55
5	43147	8.81	36.55
5	43704	8.91	36.55
5	44269	9.01	36.55
5	44826	9.11	36.55
5	45383	9.21	36.55
5	45940	9.31	36.55
5	46497	9.41	36.55
5	47054	9.51	36.55
5	47611	9.61	36.55
5	48168	9.71	36.55
5	48725	9.81	36.55
5	49282	9.91	36.55
5	49855	10.01	36.55
5	50412	10.11	36.55
5	50969	10.21	36.55
5	51526	10.31	36.55
5	52083	10.41	36.55
5	52640	10.51	36.55
5	53197	10.61	36.55
5	53754	10.71	36.55
5	54311	10.81	36.55
5	54868	10.91	36.55
5	55441	11.01	36.55
5	55998	11.11	36.55
5	56555	11.21	36.55
5	57112	11.31	36.55
5	57669	11.41	36.55
5	58226	11.51	36.55
5	58783	11.61	36.55
5	59340	11.71	36.55
5	59897	11.81	36.55
5	60454	11.91	36.55
5	61027	12.01	36.55
5	61584	12.11	36.55
5	62141	12.21	36.55
5	62698	12.31	36.55
5	63255	12.41	36.55
5	63812	12.51	36.55
5	64369	12.61	36.55
5	64926	12.71	36.55
5	65483	12.81	36.55
5	66040	12.91	36.55
5	66613	13.01	36.55
5	67170	13.11	36.55
5	67727	13.21	36.55
5	68284	13.31	36.55
5	68841	13.41	36.55
5	69398	13.51	36.55
5	69955	13.61	36.55
5	70512	13.71	36.55
5	71069	13.81	36.55
5	71626	13.91	36.55
5	72199	14.01	36.55
5	72756	14.11	36.55
5	73313	14.21	36.55
5	73870	14.31	36.55
5	74427	14.41	36.55
5	74984	14.51	36.55
5	75541	14.61	36.55
5	76098	14.71	36.55
5	76655	14.81	36.55
5	77212	14.91	36.55
5	77785	15.01	36.55
5	78342	15.11	36.55
5	78899	15.21	36.55
5	79456	15.31	36.55
5	80013	15.41	36.55
5	80570	15.51	36.55
5	81127	15.61	36.55
5	81684	15.71	36.55
5	82241	15.81	36.55
5	82798	15.91	36.55
5	83371	16.01	36.55
5	83928	16.11	36.55
5	84485	16.21	36.55
5	85042	16.31	36.55
5	85599	16.41	36.55
5	86156	16.51	36.55
5	86713	16.61	36.55
5	87270	16.71	36.55
5	87827	16.81	36.55
5	88384	16.91	36.55
5	88957	17.01	36.55
5	89514	17.11	36.55
5	90071	17.21	36.55
5	90628	17.31	36.55
5	91185	17.41	36.55
5	91742	17.51	36.55
5	92299	17.61	36.55
5	92856	17.71	36.55
5	93413	17.81	36.55
5	93970	17.91	36.55
5	94543	18.01	36.55
5	95100	18.11	36.55
5	95657	18.21	36.55
5	96214	18.31	36.55
5	96771	18.41	36.55
5	97328	18.51	36.55
5	97885	18.61	36.55
5	98442	18.71	36.55
5	98999	18.81	36.55
5	99556	18.91	36.55
5	100129	19.01	36.55
5	100686	19.11	36.55
5	101243	19.21	36.55
5	101800	19.31	36.55
5	102357	19.41	36.55
5	102914	19.51	36.55
5	103471	19.61	36.55
5	104028	19.71	36.55
5	104585	19.81	36.55
5	105142	19.91	36.55
5	105715	20.01	36.55
5	106272	20.11	36.55
5	106829	20.21	36.55
5	107386	20.31	36.55
5	107943	20.41	36.55
5	108500	20.51	36.55
5	109057	20.61	36.55
5	109614	20.71	36.55
5	110171	20.81	36.55
5	110728	20.91	36.55
5	111301	21.01	36.55
5	111858	21.11	36.55
5	112415	21.21	36.55
5	112972	21.31	36.55
5	113529	21.41	36.55
5	114086	21.51	36.55
5	114643	21.61	36.55
5	115200	21.71	36.55
5	115757	21.81	36.55
5	116314	21.91	36.55
5	116887	22.01	36.55
5	117444	22.11	36.55
5	118001	22.21	36.55
5	118558	22.31	36.55
5	119115	22.41	36.55
5	119672	22.51	36.55
5	120229	22.61	36.55
5	120786	22.71	36.55
5	121343	22.81	36.55
5	121900	22.91	36.55
5	122473	23.01	36.55
5	123030	23.11	36.55
5	123587	23.21	36.55
5	124144	23.31	36.55
5	124701	23.41	36.55
5	125258	23.51	36.55
5	125815	23.61	36.55
5	126372	23.71	36.55
5	126929	23.81	36.55
5	127486	23.91	36.55
5	128059	24.01	36.55
5	128616	24.11	36.55
5	129173	24.21	36.55
5	129730	24.31	36.55
5	130287	24.41	36.55
5	130844	24.51	36.55
5	131401	24.61	36.55
5	131958	24.71	36.55
5	132515	24.81	36.55
5	133072	24.91	36.55
5	133645	25.01	36.55
5	134202	25.11	36.55
5	134759	25.21	36.55
5	135316	25.31	36.55
5	135873	25.41	36.55
5	136430	25.51	36.55
5	136987	25.61	36.55
5	137544	25.71	36.55
5	138101	25.81	36.55
5	138658	25.91	36.55
5	139231	26.01	36.55
5	139788	26.11	36.55
5	140345	26.21	36.55
5	140902	26.31	36.55
5	141459	26.41	36.55
5	142016	26.51	36.55
5	142573	26.61	36.55
5	143130	26.71	36.55
5	143687	26.81	36.55
5	144244	26.91	36.55
5	144817	27.01	36.55
5	145374	27.11	36.55
5	145931	27.21	36.55
5	146488	27.31	36.55
5	147045	27.41	36.55
5	147602	27.51	36.55
5	148159	27.61	36.55
5	148716	27.71	36.55
5	149273	27.81	36.55
5	149830	27.91	36.55
5	150403	28.01	36.55
5	150960	28.11	36.55
5	151517	28.21	36.55
5	152074	28.31	36.55
5	152631	28.41	36.55
5	153188	28.51	36.55
5	153745	28.61	36.55
5	154302	28.71	36.55
5	154859	28.81	36.55
5	155416	28.91	36.55
5	155989	29.01	36.55
5	156546	29.11	36.55
5	157103	29.21	36.55
5	157660	29.31	36.55
5	158217	29.41	36.55
5	158774	29.51	36.55
5	159331	29.61	36.55
5	159888	29.71	36.55
5	160445	29.81	36.55
5	161002	29.91	36.55
5	161575	30.01	36.55
5	162132	30.11	36.55
5	162689	30.21	36.55
5	163246	30.31	36.55
5	163803	30.41	36.55
5	164360	30.51	36.55
5	164917	30.61	36.55
5	165474	30.71	36.55
5	166031	30.81	36.55
5	166588	30.91	36.55
5	167161	31.01	36.55
5	167718	31.11	36.55
5	168275	31.21	36.55
5	168832	31.31	36.55
5	169389	31.41	36.55
5	169946	31.51	36.55
5	170503	31.61	36.55
5	171060	31.71	36.55
5	171617	31.81	36.55
5	172174	31.91	36.55
5	172747	32.01	36.55
5	173304	32.11	36.55
5	173861	32.21	36.55
5	174418	32.31	36.55
5	174975	32.41	36.55
5	175532	32.51	36.55
5	176089	32.61	36.55
5	176646	32.71	36.55
5	177203	32.81	36.55
5	177760	32.91	36.55
5	178333	33.01	36.55
5	178890	33.11	36.55
5	179447	33.21	36.55
5	180004	33.31	36.55
5	180561	33.41	36.55
5	181118	33.51	36.55
5	181675	33.61	36.55
5	182232	33.71	36.55
5	182789	33.81	36.55
5	183346	33.91	36.55
5	183919	34.01	36.55
5	184476	34.11	36.55
5	185033	34.21	36.55
5	185590	34.31	36.55
5	186147	34.41	36.55
5	186704	34.51	36.55
5	187261	34.61	36.55
5	187818	34.71	36.55
5	188375	34.81	36.55
5	188932	34.91	36.55
5	189505	35.01	36.55
5	190062	35.11	36.55
5	190619	35.21	36.55
5	191176	35.31	36.55
5	191733	35.41	36.55
5	192290	35.51	36.55
5	192847	35.61	36.55
5	193404	35.71	36.55
5	193961	35.81	36.55
5	194518	35.91	36.55
5	195091	36.01	36.55
5	195648	36.11	36.55
5	196205	36.21	36.55
5	196762	36.31	36.55
5	197319	36.41	36.55
5	197876	36.51	36.55
5	198433	36.61	36.55
5	198990	36.71	36.55
5	199547	36.81	36.55
5	200104	36.91	36.55
5	200677	37.01	36.55
5	201234	37.11	36.55
5	201791	37.21	36.55
5	202348	37.31	36.55
5	202905	37.41	36.55
5	203462	37.51	36.55
5	204019	37.61	36.55
5	204576	37.71	36.55
5	205133	37.81	36.55
5	205690	37.91	36.55
5	206263	38.01	36.55
5	206820	38.11	36.55
5	207377	38.21	36.55
5	207934	38.31	36.55
5	208491	38.41	36.55
5	209048	38.51	36.55
5	209605	38.61	36.55
5	210162	38.71	36.55
5	210719	38.81	36.55
5	211276	38.91	36.55
5	211849	39.01	36.55
5	212406	39.11	36.55
5	212963	39.21	36.55
5	213520	39.31	36.55
5	214077	39.41	36.55
5	214634	39.51	36.55
5	215191	39.61	36.55
5	215748	39.71	36.55
5	216305	39.81	36.55
5	216862	39.91	36.55
5	217435	40.01	36.55
5	217992	40.11	36.55
5	218549	40.21	36.55
5	219106	40.31	36.55
5	219663	40.41	36.55
5	220220	40.51	36.55
5	220777	40.61	36.55
5	221334	40.71	36.55
5	221891	40.81	36.55
5	222448	40.91	36.55
5	223021	41.01	36.55
5	223578	41.11	36.55
5	224135	41.21	36.55
5	224692	41.31	36.55
5	225249	41.41	36.55
5	225806	41.51	36.55
5	226363	41.61	36.55
5	226920	41.71	36.55
5	227477	41.81	36.55
5	228034	41.91	36.55
5	228607	42.01	36.55
5	229164	42.11	36.55
5	229721	42.21	36.55
5	230278	42.31	36.55
5	230835	42.41	36.55
5	231392	42.51	36.55
5	231949	42.61	36.55
5	232506	42.71	36.55
5	233063	42.81	36.55
5	233620	42.91	36.55
5	234193	43.01	36.55
5	234750	43.11	36.55
5	235307	43.21	36.55
5	235864	43.31	36.55
5	236421	43.41	36.55
5	236978	43.51	36.55
5	237535	43.61	36.55
5	238092	43.71	36.55
5	238649	43.81	36.55
5	239206	43.91	36.55
5	239779	44.01	36.55
5	240336	44.11	36.55
5	240893	44.21	36.55
5	241450	44.31	36.55
5	242007	44.41	36.55
5	242564	44.51	36.55
5	243121	44.61	36.55
5	243678	44.71	36.55
5	244235	44.81	36.55
5	244792	44.91	36.55
5	245365	45.01	36.55
5	245922	45.11	36.55
5	246479	45.21	36.55
5	247036	45.31	36.55
5	247593	45.41	36.55
5	248150	45.51	36.55
5	248707	45.61	36.55
5	249264	45.71	36.55
5	249821	45.81	36.55
5	250378	45.91	36.55
5	250951	46.01	36.55
5	251508	46.11	36.55
5	252065	46.21	36.55
5	252622	46.31	36.55
5	253179	46.41	36.55
5	253736	46.51	36.55
5	254293	46.61	36.55
5	254850	46.71	36.55
5	255407	46.81	36.55
5	255964	46.91	36.55
5	256537	47.01	36.55
5	257094	47.11	36.55
5	257651	47.21	36.55
5	258208	47.31	36.55
5	258765	47.41	36.55
5	259322	47.51	36.55
5	259879	47.61	36.55
5	260436	47.71	36.55
5	260993	47.81	36.55
5	261550	47.91	36.55
5	262123	48.01	36.55
5	262680	48.11	36.55
5	263237	48.21	36.55
5	263794	48.31	36.55
5	264351	48.41	36.55
5	264908	48.51	36.55
5	265465	48.61	36.55
5	266022	48.71	36.55
5	266579	48.81	36.55
5	267136	48.91	36.55
5	267709	49.01	36.55
5	268266	49.11	36.55
5	268823	49.21	36.55
5	269380	49.31	36.55
5	269937	49.41	36.55
5	270494	49.51	36.55
5	271051	49.61	36.55
5	271608	49.71	36.55
5	272165	49.81	36.55
5	272722	49.91	36.55
5	273295	50.01	36.55
5	273852	50.11	36.55
5	274409	50.21	36.55
5	274966	50.31	36.55
5	275523	50.41	36.55
5	276080	50.51	36.55
5	276637	50.61	36.55
5	277194	50.71	36.55
5	277751	50.81	36.55
5	278308	50.91	36.55
5	278881	51.01	36.55
5	279438	51.11	36.55
5	279995	51.21	36.55
5	280552	51.31	36.55
5	281109	51.41	36.55
5	281666	51.51	36.55
5	282223	51.61	36.55
5	282780	51.71	36.55
5	283337	51.81	36.55
5	283894	51.91	36.55
5	284467	52.01	36.55
5	285024	52.11	36.55
5	285581	52.21	36.55
5	286138	52.31	36.55
5	286695	52.41	36.55
5	287252	52.51	36.55
5	287809	52.61	36.55
5	288366	52.71	36.55
5	288923	52.81	36.55
5	289480	52.91	36.55
5	290053	53.01	36.55
5	290610	53.11	36.55
5	291167	53.21	36.55
5	291724	53.31	36.55
5	292281	53.41	36.55
5	292838	53.51	36.55
5	293395	53.61	36.55
5	293952	53.71	36.55
5	294509	53.81	36.55
5	295066	53.91	36.55
5	295639	54.01	36.55
5	296196	54.11	36.55
5	296753	54.21	36.55
5	297310	54.31	36.55
5	297867	54.41	36.55
5	298424	54.51	36.55
5	298981	54.61	36.55
5	299538	54.71	36.55
5	300095	54.81	36.55
5	300652	54.91	36.55
5	301225	55.01	36.55
5	301782	55.11	36.55
5	302339	55.21	36.55
5	302896	55.31	36.55
5	303453	55.41	36.55
5	304010	55.51	36.55
5	304567	55.61	36.55
5	305124	55.71	36.55
5	305681	55.81	36.55
5	306238	55.91	36.55
5	306811	56.01	36.55
5	307368	56.11	36.55
5	307925	56.21	36.55
5	308482	56.31	36.55
5	309039	56.41	36.55
5	309596	56.51	36.55
5	310153	56.61	36.55
5	310710	56.71	36.55
5	311267	56.81	36.55
5	311824	56.91	36.55
5	312397	57.01	36.55
5	312954	57.11	36.55
5	313511	57.21	36.55
5	314068	57.31	36.55
5	314625	57.41	36.55
5	315182	57.51	36.55
5	315739	57.61	36.55
5	316296	57.71	36.55
5	316853	57.81	36.55
5	317410	57.91	36.55
5	317983	58.01	36.55
5	318540	58.11	36.55
5	319097	58.21	36.55
5	319654	58.31	36.55
5	320211	58.41	36.55
5	320768	58.51	36.55
5	321325	58.61	36.55
5	321882	58.71	36.55
5	322439	58.81	36.55
5	322996	58.91	36.55
5	323569	59.01	36.55
5	324126	59.11	36.55
5	324683	59.21	36.55
5	325240	59.31	36.55
5	325797	59.41	36.55
5	326354	59.51	36.55
5	326911	59.61	36.55
5	327468	59.71	36.55
5	328025	59.81	36.55
5	328582	59.91	36.55
4	233	1.11	106.21764297459
4	790	1.21	108.99542083538
4	1346	1.31	111.77319869345
4	1903	1.41	114.55097654785
4	2460	1.51	117.32875439787
4	3016	1.61	120.106532243
4	3572	1.71	122.88431008291
4	4129	1.81	125.66208791742
4	4685	1.91	128.43986574648
4	5252	2.01	131.21764357016
4	5808	2.11	133.9954213886
4	6364	2.21	136.773199202
4	6920	2.31	139.55097701064
4	7476	2.41	142.32875481482
4	8032	2.51	145.10653261486
4	8588	2.61	147.88431041112
4	9144	2.71	150.66208820393
4	9700	2.81	153.43986599364
4	10256	2.91	156.21764378061
4	10820	3.01	158.99542156516
4	11376	3.11	161.77319934759
4	11932	3.21	164.55097712822
4	12488	3.31	167.3287549073
4	13044	3.41	170.1065326851
4	13600	3.51	172.88431046185
4	14156	3.61	175.66208823775
4	14712	3.71	178.43986601299
4	15268	3.81	181.21764378773
4	15824	3.91	183.99542156211
4	16388	4.01	186.77319933627
4	16944	4.11	189.55097711031
4	17500	4.21	192.32875488431
4	18056	4.31	195.10653265835
4	18612	4.41	197.8843104325
4	19168	4.51	200.66208820679
4	19724	4.61	203.43986598126
4	20280	4.71	206.21764375594
4	20836	4.81	208.99542153085
4	21392	4.91	211.773199306
4	21957	5.01	214.55097708139
4	22514	5.11	217.32875622231
4	23071	5.21	220.10676186517
4	23628	5.31	222.88576760165
4	24185	5.41	225.66699805937
4	24742	5.51	228.45200322204
4	25299	5.61	231.24251795207
4	25856	5.71	234.04022773395
4	26413	5.81	236.84653460807
4	26970	5.91	239.66258886771
4	27535	6.01	242.48933415399
4	28092	6.11	245.3275445813
4	28649	6.21	248.17785519306
4	29206	6.31	251.04078694607
4	29763	6.41	253.91676720634
4	30320	6.51	256.80614653119
4	30877	6.61	259.70918267053
4	31434	6.71	262.62582919141
4	31991	6.81	265.55555957731
4	32548	6.91	268.49738505188
4	33113	7.01	271.44989090231
4	33670	7.11	274.41128001412
4	34227	7.21	277.37942246134
4	34784	7.31	280.35190998463
4	35341	7.41	283.32611464703
4	35898	7.51	286.2993235213
4	36455	7.61	289.26903880106
4	37012	7.71	292.23319334101
4	37569	7.81	295.19009136201
4	38126	7.91	298.13834173453
4	38691	8.01	301.07680324781
4	39248	8.11	304.00453971155
4	39805	8.21	306.92078312365
4	40362	8.31	309.82490345485
4	40919	8.41	312.71638386177
4	41476	8.51	315.59480035277
4	42033	8.61	318.45980510706
4	42590	8.71	321.31111279045
4	43147	8.81	324.14848932951
4	43704	8.91	326.97174270249
4	44269	9.01	329.78071538469
4	44826	9.11	332.57527815099
4	45383	9.21	335.35532499178
4	45940	9.31	338.12076894225
4	46497	9.41	340.87153866097
4	47054	9.51	343.60757788594
4	47611	9.61	346.32908191752
4	48168	9.71	349.03691207704
4	48725	9.81	351.7325601269
4	49282	9.91	354.41804318015
4	49855	10.01	357.09579907629
4	50412	10.11	359.76858353216
4	50969	10.21	362.43936930701
4	51526	10.31	365.11108461477
4	52083	10.41	367.78625076459
4	52640	10.51	370.46694258231
4	53197	10.61	373.15486214781
4	53754	10.71	375.85140575942
4	54311	10.81	378.55771886809
4	54868	10.91	381.27474114256
4	55441	11.01	384.0032434385
4	55998	11.11	386.74385812604
4	56555	11.21	389.49710396892
4	57112	11.31	392.26340653413
4	57669	11.41	395.04311493479
4	58226	11.51	397.83651556529
4	58783	11.61	400.64384336875
4	59340	11.71	403.46529108037
4	59897	11.81	406.30101681016
4	60454	11.91	409.15113546396
4	61027	12.01	412.01544201201
4	61584	12.11	414.89309113833
4	62141	12.21	417.7826537416
4	62698	12.31	420.68220393117
4	63255	12.41	423.58940781832
4	63812	12.51	426.50161273943
4	64369	12.61	429.41593648631
4	64926	12.71	432.32949030983
4	65483	12.81	435.23972843555
4	66040	12.91	438.14455175872
4	66613	13.01	441.04223828232
4	67170	13.11	443.93137536903
4	67727	13.21	446.81080416421
4	68284	13.31	449.67957400345
4	68841	13.41	452.53690501079
4	69398	13.51	455.38215741634
4	69955	13.61	458.21480638593
4	70512	13.71	461.03442137277
4	71069	13.81	463.84064917851
4	71626	13.91	466.6332000575
4	72199	14.01	469.41183631737
4	72756	14.11	472.17636296761
4	73313	14.21	474.92662004807
4	73870	14.31	477.66247633572
4	74427	14.41	480.38382496303
4	74984	14.51	483.09073246784
4	75541	14.61	485.78381415618
4	76098	14.71	488.46431376267
4	76655	14.81	491.13401710464
4	77212	14.91	493.79515766632
4	77785	15.01	496.45032204977
4	78342	15.11	499.10235617339
4	78899	15.21	501.75420291093
4	79456	15.31	504.4085714156
4	80013	15.41	507.06770342315
4	80570	15.51	509.73343793771
4	81127	15.61	512.40728358315
4	81684	15.71	515.09047795652
4	82241	15.81	517.78403631847
4	82798	15.91	520.48879153633
4	83371	16.01	523.20542685139
4	83928	16.11	525.9345027595
4	84485	16.21	528.67647906248
4	85042	16.31	531.43173295794
4	85599	16.41	534.20057387934
4	86156	16.51	536.98325566985
4	86713	16.61	539.77998656933
4	87270	16.71	542.59093740695
4	87827	16.81	545.41624832216
4	88384	16.91	548.25603326363
4	88957	17.01	551.11019572739
4	89514	17.11	553.97803734317
4	90071	17.21	556.85824444972
4	90628	17.31	559.74897775021
4	91185	17.41	562.6479647326
4	91742	17.51	565.5525923223
4	92299	17.61	568.45999905193
4	92856	17.71	571.36725927638
4	93413	17.81	574.2717207315
4	93970	17.91	577.17119144546
4	94543	18.01	580.06387323788
4	95100	18.11	582.94829097456
4	95657	18.21	585.82323453166
4	96214	18.31	588.68771118615
4	96771	18.41	591.54090655937
4	97328	18.51	594.38215257719
4	97885	18.61	597.21090118612
4	98442	18.71	600.0267027914
4	98999	18.81	602.82918856875
4	99556	18.91	605.6180559538
4	100129	19.01	608.39305673838
4	100686	19.11	611.15398730533
4	101243	19.21	613.90068061766
4	101800	19.31	616.63299964688
4	102357	19.41	619.35083290061
4	102914	19.51	622.05426554476
4	103471	19.61	624.74396511631
4	104028	19.71	627.42121934943
4	104585	19.81	630.08784770384
4	105142	19.91	632.74610820618
4	105715	20.01	635.3986040957
4	106272	20.11	638.04819105065
4	106829	20.21	640.697801063
4	107386	20.31	643.35010742887
4	107943	20.41	646.00732051928
4	108500	20.51	648.67125360832
4	109057	20.61	651.34339421231
4	109614	20.71	654.02496261273
4	110171	20.81	656.71695986545
4	110728	20.91	659.4202071849
4	111301	21.01	662.13537825298
4	111858	21.11	664.86302572348
4	112415	21.21	667.60360296499
4	112972	21.31	670.35748189767
4	113529	21.41	673.12496762559
4	114086	21.51	675.90631044035
4	114643	21.61	678.70171566824
4	115200	21.71	681.51135174835
4	115757	21.81	684.33535685937
4	116314	21.91	687.17384340732
4	116887	22.01	690.02672209998
4	117444	22.11	692.89331397764
4	118001	22.21	695.77232168006
4	118558	22.31	698.66191838019
4	119115	22.41	701.55984066906
4	119672	22.51	704.46348165013
4	120229	22.61	707.36998348888
4	120786	22.71	710.27641653802
4	121343	22.81	713.18011529248
4	121900	22.91	716.07887619745
4	122473	23.01	718.97089157049
4	123030	23.11	721.85467848238
4	123587	23.21	724.72902041464
4	124144	23.31	727.59291939843
4	124701	23.41	730.44555675169
4	125258	23.51	733.28626086998
4	125815	23.61	736.11448080377
4	126372	23.71	738.9297645825
4	126929	23.81	741.73174143295
4	127486	23.91	744.52010719188
4	128059	24.01	747.29461233953
4	128616	24.11	750.05505218278
4	129173	24.21	752.80125880198
4	129730	24.31	755.53309444452
4	130287	24.41	758.25044704284
4	130844	24.51	760.95340435752
4	131401	24.61	763.64264110919
4	131958	24.71	766.31945108573
4	132515	24.81	768.98565838005
4	133072	24.91	771.64352440358
4	133645	25.01	774.29565469551
4	134202	25.11	776.94490628998
4	134759	25.21	779.59420970423
4	135316	25.31	782.24623333431
4	135873	25.41	784.90318326434
4	136430	25.51	787.56686925166
4	136987	25.61	790.23877592763
4	137544	25.71	792.92012120704
4	138101	25.81	795.61190420426
4	138658	25.91	798.31494454103
4	139231	26.01	801.02991459267
4	139788	26.11	803.75736594112
4	140345	26.21	806.49775107568
4	140902	26.31	809.25144119521
4	141459	26.41	812.01874081202
4	142016	26.51	814.7998997323
4	142573	26.61	817.59512288412
4	143130	26.71	820.40457837987
4	143687	26.81	823.22840413027
4	144244	26.91	826.06671232848
4	144817	27.01	828.9194146455
4	145374	27.11	831.78583478758
4	145931	27.21	834.66467764111
4	146488	27.31	837.55411809853
4	147045	27.41	840.45189400713
4	147602	27.51	843.35539932399
4	148159	27.61	846.26177671794
4	148716	27.71	849.16809599458
4	149273	27.81	852.07168983071
4	149830	27.91	854.97035308084
4	150403	28.01	857.86227675762
4	150960	28.11	860.74597686137
4	151517	28.21	863.62023599547
4	152074	28.31	866.48405547065
4	152631	28.41	869.33661601388
4	153188	28.51	872.17724553595
4	153745	28.61	875.00539268956
4	154302	28.71	877.82060517795
4	154859	28.81	880.62251196021
4	155416	28.91	883.41080865356
4	155989	29.01	886.1852455581
4	156546	29.11	888.94561783297
4	157103	29.21	891.6917574373
4	157660	29.31	894.42352651903
4	158217	29.41	897.14081293164
4	158774	29.51	899.84370479315
4	159331	29.61	902.53287781355
4	159888	29.71	905.20962661445
4	160445	29.81	907.87577592687
4	161002	29.91	910.53358762845
4	161575	30.01	913.18566757515
4	162132	30.11	915.83487298792
4	162689	30.21	918.48413418097
4	163246	30.31	921.13611887564
4	163803	30.41	923.79303256573
4	164360	30.51	926.45668452436
4	164917	30.61	929.12855898561
4	165474	30.71	931.80987353841
4	166031	30.81	934.50162702978
4	166588	30.91	937.20463886214
4	167161	31.01	939.91958123091
4	167718	31.11	942.64700557043
4	168275	31.21	945.38736424894
4	168832	31.31	948.14102836596
4	169389	31.41	950.90830235233
4	169946	31.51	953.68943594739
4	170503	31.61	956.48463402438
4	171060	31.71	959.29406465071
4	171617	31.81	962.1178657002
4	172174	31.91	964.95614933668
4	172747	32.01	967.80882736383
4	173304	32.11	970.67522385504
4	173861	32.21	973.5540440061
4	174418	32.31	976.44346294626
4	174975	32.41	979.34121869581
4	175532	32.51	982.2447053294
4	176089	32.61	985.15106558518
4	176646	32.71	988.0573691934
4	177203	32.81	990.96094858047
4	177760	32.91	993.85959838185
4	178333	33.01	996.75150943048
4	178890	33.11	999.63519757925
4	179447	33.21	1002.5094453106
4	180004	33.31	1005.3732538361
4	180561	33.41	1008.2258038012
4	181118	33.51	1011.0664230501
4	181675	33.61	1013.8945601806
4	182232	33.71	1016.7097628511
4	182789	33.81	1019.5116599837
4	183346	33.91	1022.2999471655
4	183919	34.01	1025.0743746718
4	184476	34.11	1027.8347376413
4	185033	34.21	1030.5808680165
4	185590	34.31	1033.3126279317
4	186147	34.41	1036.0299052293
4	186704	34.51	1038.7327880768
4	187261	34.61	1041.4219523203
4	187818	34.71	1044.0986926962
4	188375	34.81	1046.7648340235
4	188932	34.91	1049.422638244
4	189505	35.01	1052.0747112573
4	190062	35.11	1054.72391031
4	190619	35.21	1057.3731656885
4	191176	35.31	1060.0251450211
4	191733	35.41	1062.6820537203
4	192290	35.51	1065.3457009926
4	192847	35.61	1068.0175710173
4	193404	35.71	1070.6988813385
4	193961	35.81	1073.3906307664
4	194518	35.91	1076.0936386732
4	195091	36.01	1078.8085772295
4	195648	36.11	1081.5359978495
4	196205	36.21	1084.2763528845
4	196762	36.31	1087.0300134205
4	197319	36.41	1089.7972838771
4	197876	36.51	1092.5784139845
4	198433	36.61	1095.3736086082
4	198990	36.71	1098.1830358096
4	199547	36.81	1101.0068334573
4	200104	36.91	1103.8451137112
4	200677	37.01	1106.6977883932
4	201234	37.11	1109.5641816273
4	201791	37.21	1112.4429986518
4	202348	37.31	1115.3324146287
4	202905	37.41	1118.230167602
4	203462	37.51	1121.1336516626
4	204019	37.61	1124.0400095581
4	204576	37.71	1126.9463110085
4	205133	37.81	1129.8498884057
4	205690	37.91	1132.748536355
4	206263	38.01	1135.6404456645
4	206820	38.11	1138.5241321668
4	207377	38.21	1141.3983783278
4	207934	38.31	1144.2621853453
4	208491	38.41	1147.1147338537
4	209048	38.51	1149.9553516878
4	209605	38.61	1152.7834874379
4	210162	38.71	1155.5986887563
4	210719	38.81	1158.40058456
4	211276	38.91	1161.1888704319
4	211849	39.01	1163.9632966439
4	212406	39.11	1166.7236583319
4	212963	39.21	1169.4697874361
4	213520	39.31	1172.2015460888
4	214077	39.41	1174.9188221312
4	214634	39.51	1177.6217037373
4	215191	39.61	1180.310866772
4	215748	39.71	1182.9876059877
4	216305	39.81	1185.6537462153
4	216862	39.91	1188.3115494055
4	217435	40.01	1190.963621464
4	217992	40.11	1193.6128196408
4	218549	40.21	1196.2620742185
4	219106	40.31	1198.9140528126
4	219663	40.41	1201.5709608245
4	220220	40.51	1204.2346074514
4	220777	40.61	1206.9064768651
4	221334	40.71	1209.5877866036
4	221891	40.81	1212.2795354718
4	222448	40.91	1214.982542838
4	223021	41.01	1217.6974808693
4	223578	41.11	1220.424900977
4	224135	41.21	1223.1652555103
4	224692	41.31	1225.9189155531
4	225249	41.41	1228.6861855236
4	225806	41.51	1231.4673151506
4	226363	41.61	1234.2625092988
4	226920	41.71	1237.0719360285
4	227477	41.81	1239.8957332078
4	228034	41.91	1242.7340129958
4	228607	42.01	1245.5866872172
4	229164	42.11	1248.4530800026
4	229721	42.21	1251.3318965966
4	230278	42.31	1254.2213121654
4	230835	42.41	1257.1190647563
4	231392	42.51	1260.0225484625
4	231949	42.61	1262.928906033
4	232506	42.71	1265.8352071863
4	233063	42.81	1268.7387843094
4	233620	42.91	1271.6374320036
4	234193	43.01	1274.5293410736
4	234750	43.11	1277.4130273492
4	235307	43.21	1280.287273294
4	235864	43.31	1283.1510801038
4	236421	43.41	1286.0036284115
4	236978	43.51	1288.8442460507
4	237535	43.61	1291.6723816108
4	238092	43.71	1294.487582743
4	238649	43.81	1297.2894783637
4	239206	43.91	1300.0777640552
4	239779	44.01	1302.8521900889
4	240336	44.11	1305.6125516004
4	240893	44.21	1308.3586805296
4	241450	44.31	1311.0904390085
4	242007	44.41	1313.807714878
4	242564	44.51	1316.5105963131
4	243121	44.61	1319.1997591814
4	243678	44.71	1321.8764982373
4	244235	44.81	1324.5426383134
4	244792	44.91	1327.2004413617
4	245365	45.01	1329.8525132887
4	245922	45.11	1332.5017113449
4	246479	45.21	1335.1509658123
4	247036	45.31	1337.8029443047
4	247593	45.41	1340.459852222
4	248150	45.51	1343.12349876
4	248707	45.61	1345.7953680895
4	249264	45.71	1348.4766777477
4	249821	45.81	1351.1684265389
4	250378	45.91	1353.8714338307
4	250951	46.01	1356.5863717897
4	251508	46.11	1359.3137918268
4	252065	46.21	1362.054146291
4	252622	46.31	1364.8078062659
4	253179	46.41	1367.5750761695
4	253736	46.51	1370.3562057303
4	254293	46.61	1373.151399813
4	254850	46.71	1375.9608264777
4	255407	46.81	1378.7846235925
4	255964	46.91	1381.6229033164
4	256537	47.01	1384.4755774743
4	257094	47.11	1387.341970198
4	257651	47.21	1390.2207867326
4	258208	47.31	1393.1102022452
4	258765	47.41	1396.0079547835
4	259322	47.51	1398.9114384409
4	259879	47.61	1401.8177959667
4	260436	47.71	1404.724097079
4	260993	47.81	1407.6276741644
4	261550	47.91	1410.5263218234
4	262123	48.01	1413.4182308604
4	262680	48.11	1416.3019171048
4	263237	48.21	1419.1761630198
4	263794	48.31	1422.039969801
4	264351	48.41	1424.8925180811
4	264908	48.51	1427.7331356935
4	265465	48.61	1430.5612712274
4	266022	48.71	1433.3764723339
4	266579	48.81	1436.1783679294
4	267136	48.91	1438.9666535961
4	267709	49.01	1441.7410796052
4	268266	49.11	1444.5014410925
4	268823	49.21	1447.2475699975
4	269380	49.31	1449.9793284525
4	269937	49.41	1452.6966042982
4	270494	49.51	1455.3994857097
4	271051	49.61	1458.0886485551
4	271608	49.71	1460.765387589
4	272165	49.81	1463.4315276443
4	272722	49.91	1466.0893306731
4	273295	50.01	1468.7414025819
4	273852	50.11	1471.3906006215
4	274409	50.21	1474.0398550737
4	274966	50.31	1476.6918335521
4	275523	50.41	1479.3487414563
4	276080	50.51	1482.0123879821
4	276637	50.61	1484.6842573001
4	277194	50.71	1487.3655669472
4	277751	50.81	1490.0573157278
4	278308	50.91	1492.7603230093
4	278881	51.01	1495.4752609583
4	279438	51.11	1498.2026809857
4	279995	51.21	1500.9430354404
4	280552	51.31	1503.696695406
4	281109	51.41	1506.4639653003
4	281666	51.51	1509.2450948521
4	282223	51.61	1512.0402889257
4	282780	51.71	1514.8497155815
4	283337	51.81	1517.6735126874
4	283894	51.91	1520.5117924024
4	284467	52.01	1523.3644665516
4	285024	52.11	1526.2308592668
4	285581	52.21	1529.1096757933
4	286138	52.31	1531.9990912981
4	286695	52.41	1534.8968438292
4	287252	52.51	1537.8003274799
4	287809	52.61	1540.7066849994
4	288366	52.71	1543.6129861061
4	288923	52.81	1546.5165631863
4	289480	52.91	1549.4152108405
4	290053	53.01	1552.307119873
4	290610	53.11	1555.1908061131
4	291167	53.21	1558.0650520239
4	291724	53.31	1560.9288588012
4	292281	53.41	1563.7814070775
4	292838	53.51	1566.6220246862
4	293395	53.61	1569.4501602165
4	293952	53.71	1572.2653613195
4	294509	53.81	1575.0672569115
4	295066	53.91	1577.8555425747
4	295639	54.01	1580.6299685805
4	296196	54.11	1583.3903300644
4	296753	54.21	1586.1364589661
4	297310	54.31	1588.8682174178
4	297867	54.41	1591.5854932602
4	298424	54.51	1594.2883746685
4	298981	54.61	1596.9775375107
4	299538	54.71	1599.6542765416
4	300095	54.81	1602.320416594
4	300652	54.91	1604.9782196201
4	301225	55.01	1607.6302915264
4	301782	55.11	1610.2794895638
4	302339	55.21	1612.9287440139
4	302896	55.31	1615.5807224904
4	303453	55.41	1618.2376303928
4	304010	55.51	1620.9012769169
4	304567	55.61	1623.5731462333
4	305124	55.71	1626.2544558789
4	305681	55.81	1628.946204658
4	306238	55.91	1631.6492119381
4	306811	56.01	1634.3641498858
4	307368	56.11	1637.0915699118
4	307925	56.21	1639.8319243652
4	308482	56.31	1642.5855843295
4	309039	56.41	1645.3528542225
4	309596	56.51	1648.133983773
4	310153	56.61	1650.9291778454
4	310710	56.71	1653.7386045
4	311267	56.81	1656.5624016046
4	311824	56.91	1659.4006813185
4	312397	57.01	1662.2533554664
4	312954	57.11	1665.1197481805
4	313511	57.21	1667.9985647058
4	314068	57.31	1670.8879802096
4	314625	57.41	1673.7857327396
4	315182	57.51	1676.6892163894
4	315739	57.61	1679.5955739081
4	316296	57.71	1682.501875014
4	316853	57.81	1685.4054520935
4	317410	57.91	1688.3040997471
4	317983	58.01	1691.1960087789
4	318540	58.11	1694.0796950184
4	319097	58.21	1696.9539409287
4	319654	58.31	1699.8177477054
4	320211	58.41	1702.6702959812
4	320768	58.51	1705.5109135894
4	321325	58.61	1708.3390491192
4	321882	58.71	1711.1542502217
4	322439	58.81	1713.9561458132
4	322996	58.91	1716.744431476
4	323569	59.01	1719.5188574813
4	324126	59.11	1722.2792189647
4	324683	59.21	1725.025347866
4	325240	59.31	1727.7571063172
4	325797	59.41	1730.4743821592
4	326354	59.51	1733.1772635671
4	326911	59.61	1735.8664264088
4	327468	59.71	1738.5431654393
4	328025	59.81	1741.2093054913
4	328582	59.91	1743.867108517
3	233	1.11	27.777778619612
3	790	1.21	27.777778599967
3	1346	1.31	27.777778569105
3	1903	1.41	27.777778529595
3	2460	1.51	27.777778483698
3	3016	1.61	27.777778433385
3	3572	1.71	27.777778380352
3	4129	1.81	27.777778326039
3	4685	1.91	27.77777827165
3	5252	2.01	27.777778218173
3	5808	2.11	27.777778166406
3	6364	2.21	27.777778116967
3	6920	2.31	27.777778070327
3	7476	2.41	27.777778026819
3	8032	2.51	27.77777798666
3	8588	2.61	27.77777794997
3	9144	2.71	27.777777916782
3	9700	2.81	27.777777887063
3	10256	2.91	27.777777860724
3	10820	3.01	27.777777837628
3	11376	3.11	27.777777817609
3	11932	3.21	27.777777800471
3	12488	3.31	27.777777786005
3	13044	3.41	27.777777773991
3	13600	3.51	27.777777764203
3	14156	3.61	27.777777756416
3	14712	3.71	27.777777750412
3	15268	3.81	27.777777745977
3	15824	3.91	27.77777774291
3	16388	4.01	27.777777741018
3	16944	4.11	27.777777740126
3	17500	4.21	27.77777774007
3	18056	4.31	27.7777777407
3	18612	4.41	27.777777741882
3	19168	4.51	27.777777743495
3	19724	4.61	27.777777745434
3	20280	4.71	27.777777747604
3	20836	4.81	27.777777749925
3	21392	4.91	27.777777752329
3	21957	5.01	27.777777754758
3	22514	5.11	27.777846021452
3	23071	5.21	27.782059596653
3	23628	5.31	27.795775862036
3	24185	5.41	27.823056285431
3	24742	5.51	27.866721940626
3	25299	5.61	27.928063782047
3	25856	5.71	28.005327711868
3	26413	5.81	28.095658800357
3	26970	5.91	28.196709510244
3	27535	6.01	28.30655404332
3	28092	6.11	28.423612574297
3	28649	6.21	28.54658909619
3	29206	6.31	28.674420431867
3	29763	6.41	28.80623440578
3	30320	6.51	28.941313946553
3	30877	6.61	29.078388981218
3	31434	6.71	29.213351897492
3	31991	6.81	29.341385131305
3	32548	6.91	29.457981732945
3	33113	7.01	29.559024895864
3	33670	7.11	29.640856051762
3	34227	7.21	29.700331349918
3	34784	7.31	29.734866440411
3	35341	7.41	29.742492528104
3	35898	7.51	29.72320356612
3	36455	7.61	29.680432143932
3	37012	7.71	29.618396925437
3	37569	7.81	29.540558684394
3	38126	7.91	29.449756460671
3	38691	8.01	29.348319255796
3	39248	8.11	29.238157662213
3	39805	8.21	29.120839031188
3	40362	8.31	28.997649136664
3	40919	8.41	28.86964276111
3	41476	8.51	28.737685193533
3	42033	8.61	28.602486272297
3	42590	8.71	28.464628312097
3	43147	8.81	28.324589013804
3	43704	8.91	28.182760258515
3	44269	9.01	28.039463525222
3	44826	9.11	27.894962538668
3	45383	9.21	27.749473644999
3	45940	9.31	27.603174323409
3	46497	9.41	27.456210168651
3	47054	9.51	27.308798307138
3	47611	9.61	27.165456941051
3	48168	9.71	27.033088438825
3	48725	9.81	26.917629526736
3	49282	9.91	26.823966096352
3	49855	10.01	26.755942052805
3	50412	10.11	26.716381687291
3	50969	10.21	26.707072901132
3	51526	10.31	26.725876201723
3	52083	10.41	26.768249212414
3	52640	10.51	26.829957594714
3	53197	10.61	26.90752771624
3	53754	10.71	26.998109988574
3	54311	10.81	27.099366756701
3	54868	10.91	27.209380329303
3	55441	11.01	27.326577531569
3	55998	11.11	27.449667812217
3	56555	11.21	27.577592469696
3	57112	11.31	27.709482999991
3	57669	11.41	27.844626927306
3	58226	11.51	27.982439773336
3	58783	11.61	28.122442062297
3	59340	11.71	28.264240457043
3	59897	11.81	28.407512284116
3	60454	11.91	28.5515861915
3	61027	12.01	28.691427297144
3	61584	12.11	28.820647386679
3	62141	12.21	28.933709262078
3	62698	12.31	29.025954034973
3	63255	12.41	29.093614170539
3	63812	12.51	29.133813231597
3	64369	12.61	29.144595455085
3	64926	12.71	29.127327372936
3	65483	12.81	29.086213776084
3	66040	12.91	29.025538551786
3	66613	13.01	28.948815979671
3	67170	13.11	28.858928993054
3	67727	13.21	28.758242601384
3	68284	13.31	28.648696936139
3	68841	13.41	28.531883580877
3	69398	13.51	28.409108188466
3	69955	13.61	28.281441849017
3	70512	13.71	28.14976322948
3	71069	13.81	28.014793142794
3	71626	13.91	27.877122906629
3	72199	14.01	27.737237607429
3	72756	14.11	27.595535185033
3	73313	14.21	27.452342088714
3	73870	14.31	27.307926120577
3	74427	14.41	27.162546024449
3	74984	14.51	27.019330871672
3	75541	14.61	26.884559196285
3	76098	14.71	26.764258967301
3	76655	14.81	26.663521929862
3	77212	14.91	26.586493202078
3	77785	15.01	26.536374688625
3	78342	15.11	26.515419708568
3	78899	15.21	26.523668857685
3	79456	15.31	26.557383788157
3	80013	15.41	26.611989529068
3	80570	15.51	26.683733010807
3	81127	15.61	26.769535409097
3	81684	15.71	26.866871015679
3	82241	15.81	26.973667870074
3	82798	15.91	27.088226243028
3	83371	16.01	27.209151764536
3	83928	16.11	27.335300565535
3	84485	16.21	27.465734274985
3	85042	16.31	27.599683101797
3	85599	16.41	27.736515549161
3	86156	16.51	27.875713569743
3	86713	16.61	28.016852184292
3	87270	16.71	28.159582761803
3	87827	16.81	28.303619303423
3	88384	16.91	28.448676617794
3	88957	17.01	28.590971447913
3	89514	17.11	28.724006207991
3	90071	17.21	28.841930784337
3	90628	17.31	28.939810791426
3	91185	17.41	29.013638834762
3	91742	17.51	29.060332154734
3	92299	17.61	29.077746642843
3	92856	17.71	29.066350790361
3	93413	17.81	29.030054467132
3	93970	17.91	28.973331085061
3	94543	18.01	28.899850399997
3	95100	18.11	28.812622889912
3	95657	18.21	28.714118195293
3	96214	18.31	28.606362281514
3	96771	18.41	28.491017145825
3	97328	18.51	28.369446204845
3	97885	18.61	28.242767935079
3	98442	18.71	28.111899876827
3	98999	18.81	27.977594732713
3	99556	18.91	27.840469981056
3	100129	19.01	27.701032169144
3	100686	19.11	27.559696842186
3	101243	19.21	27.416804891984
3	101800	19.31	27.272635968552
3	102357	19.41	27.127465418657
3	102914	19.51	26.984833896344
3	103471	19.61	26.851159734065
3	104028	19.71	26.732358896103
3	104585	19.81	26.633424036685
3	105142	19.91	26.558413554113
3	105715	20.01	26.510454337265
3	106272	20.11	26.4917309481
3	106829	20.21	26.50196337238
3	107386	20.31	26.53730527926
3	107943	20.41	26.593245707503
3	108500	20.51	26.666084097724
3	109057	20.61	26.752784702327
3	109614	20.71	26.85085715093
3	110171	20.81	26.958258472424
3	110728	20.91	27.073312718935
3	111301	21.01	27.194645029473
3	111858	21.11	27.321127539161
3	112415	21.21	27.451835005966
3	112972	21.31	27.58600840916
[...]
166	326392	59.514071951008	7
166	326949	59.614075664337	7
166	327506	59.714066377548	7
166	328063	59.814070090649	7
166	328620	59.914073803656	7
165	1070	1.255250197497	7
165	1627	1.355214911325	7
165	2184	1.455205625153	7
165	2740	1.555222338981	7
165	3296	1.655213052809	7
165	3853	1.755190766637	7
165	4409	1.855259480465	7
165	4966	1.955224194293	7
165	5532	2.055253908121	7
165	6088	2.155166621949	7
165	6644	2.255235335777	7
165	7200	2.355265049605	7
165	7756	2.455190763433	7
165	8312	2.555168477261	7
165	8868	2.655237191089	7
165	9424	2.755214904917	7
165	9980	2.855257618745	7
165	10536	2.955209332573	7
165	11100	3.055200046401	7
165	11656	3.155229760229	7
165	12212	3.255194474057	7
165	12768	3.355198187885	7
165	13324	3.455253901713	7
165	13880	3.555205615541	7
165	14436	3.655183329369	7
165	14992	3.755174043197	7
165	15548	3.855164757025	7
165	16104	3.955220470853	7
165	16668	4.055198184681	7
165	17224	4.155188898509	7
165	17780	4.255257612337	7
165	18336	4.355248326165	7
165	18892	4.455187039993	7
165	19448	4.555216753821	7
165	20004	4.655194467649	7
165	20560	4.755224181477	7
165	21116	4.855253895305	7
165	21672	4.955179609133	7
165	22237	5.055170322961	7
165	22794	5.155239036789	7
165	23351	5.255203750619	7
165	23908	5.355194464462	7
165	24465	5.455224178323	7
165	25022	5.555227892217	7
165	25579	5.655192606161	7
165	26136	5.755209320165	7
165	26693	5.855213034246	7
165	27250	5.955177748411	7
165	27815	6.055181462671	7
165	28372	6.155237177029	7
165	28929	6.255253891496	7
165	29486	6.355205606073	7
165	30043	6.455170320767	7
165	30600	6.555252035584	7
165	31157	6.655242750525	7
165	31714	6.755181465591	7
165	32271	6.855237180779	7
165	32828	6.955214896082	7
165	33393	7.055179611491	7
165	33950	7.15523532699	7
165	34507	7.255239042565	7
165	35064	7.355190758197	7
165	35621	7.455233473864	7
165	36178	7.555263189543	7
165	36735	7.655227905217	7
165	37292	7.75523162087	7
165	37849	7.855261336486	7
165	38406	7.955213052054	7
165	38971	8.055164767565	7
165	39528	8.155194483009	7
165	40085	8.25519819838	7
165	40642	8.355201913673	7
165	41199	8.455218628879	7
165	41756	8.555248343994	7
165	42313	8.655174059015	7
165	42870	8.755190773936	7
165	43427	8.855168488753	7
165	43984	8.955237203464	7
165	44549	9.055253918065	7
165	45106	9.155244632552	7
165	45663	9.255170346923	7
165	46220	9.355174061176	7
165	46777	9.455190775306	7
165	47334	9.55522048931	7
165	47891	9.655185203191	7
165	48448	9.755201916954	7
165	49005	9.855179630608	7
165	49562	9.955209344168	7
165	50135	10.055265057653	7
165	50692	10.155164771084	7
165	51249	10.255259484484	7
165	51806	10.355224197875	7
165	52363	10.455188911278	7
165	52920	10.555244624708	7
165	53477	10.655209338178	7
165	54034	10.7552650517	7
165	54591	10.855242765282	7
165	55148	10.955168478935	7
165	55721	11.055211192665	7
165	56278	11.155175906479	7
165	56835	11.255192620381	7
165	57392	11.355209334376	7
165	57949	11.455200048468	7
165	58506	11.555164762661	7
165	59063	11.65525947696	7
165	59620	11.755263191367	7
165	60177	11.855253905886	7
165	60734	11.955192620518	7
165	61307	12.055170335266	7
165	61864	12.155265050121	7
165	62421	12.255177765074	7
165	62978	12.355194480111	7
165	63535	12.455211195215	7
165	64092	12.555201910363	7
165	64649	12.655205625535	7
165	65206	12.75517034071	7
165	65763	12.855174055866	7
165	66320	12.955190770986	7
165	66893	13.055246486058	7
165	67450	13.15517220107	7
165	68007	13.255175916013	7
165	68564	13.355166630877	7
165	69121	13.455170345657	7
165	69678	13.555239060344	7
165	70235	13.655216774934	7
165	70792	13.755181489423	7
165	71349	13.855250203806	7
165	71906	13.955188918078	7
165	72479	14.055218632239	7
165	73036	14.155183346283	7
165	73593	14.255239060206	7
165	74150	14.355255774007	7
165	74707	14.455207487681	7
165	75264	14.55526320123	7
165	75821	14.655253914654	7
165	76378	14.755179627967	7
165	76935	14.855235341178	7
165	77492	14.955174054305	7
165	78065	15.055177767369	7
165	78622	15.155207480389	7
165	79179	15.255198193389	7
165	79736	15.355188906391	7
165	80293	15.455179619413	7
165	80850	15.555261332468	7
165	81407	15.655174045569	7
165	81964	15.755190758726	7
165	82521	15.855233471949	7
165	83078	15.955198185246	7
165	83651	16.055214898623	7
165	84208	16.155205612084	7
165	84765	16.255261325635	7
165	85322	16.35522603928	7
165	85879	16.455255753025	7
165	86436	16.555233466872	7
165	86993	16.655263180827	7
165	87550	16.755240894889	7
165	88107	16.855192609066	7
165	88664	16.955235323358	7
165	89237	17.055187037767	7
165	89794	17.155229752288	7
165	90351	17.255207466911	7
165	90908	17.355224181623	7
165	91465	17.45524089641	7
165	92022	17.555192611248	7
165	92579	17.655209326117	7
165	93136	17.755200040993	7
165	93693	17.855229755857	7
165	94250	17.955168470691	7
165	94823	18.055172185482	7
165	95380	18.155214900215	7
165	95937	18.255179614882	7
165	96494	18.355261329475	7
165	97051	18.455239043987	7
165	97608	18.55519075841	7
165	98165	18.655207472739	7
165	98722	18.755185186969	7
165	99279	18.855240901097	7
165	99836	18.955179615118	7
165	100409	19.055235329028	7
165	100966	19.155187042825	7
165	101523	19.255177756502	7
165	102080	19.355168470059	7
165	102637	19.455211183493	7
165	103194	19.555162896804	7
165	103751	19.655231609996	7
165	104308	19.755196323077	7
165	104865	19.855213036061	7
165	105422	19.955242748965	7
165	105995	20.05519446181	7
165	106552	20.155224174617	7
165	107109	20.255188887408	7
165	107666	20.355166600205	7
165	108223	20.455209313025	7
165	108780	20.555187025883	7
165	109337	20.65521673879	7
165	109894	20.755168451757	7
165	110451	20.855211164793	7
165	111008	20.955188877905	7
165	111581	21.055192591099	7
165	112138	21.155235304383	7
165	112695	21.255213017757	7
165	113252	21.35519073123	7
165	113809	21.455181444805	7
165	114366	21.555224158485	7
165	114923	21.655240872273	7
165	115480	21.755218586176	7
165	116037	21.855183300193	7
165	116594	21.95520001433	7
165	117167	22.055229728587	7
165	117724	22.155168442957	7
165	118281	22.255198157433	7
165	118838	22.355188872001	7
165	119395	22.455179586645	7
165	119952	22.555183301344	7
165	120509	22.655265016077	7
165	121066	22.75517773082	7
165	121623	22.855194445553	7
165	122180	22.955224160259	7
165	122753	23.055253874926	7
165	123310	23.155231589539	7
165	123867	23.255235304088	7
165	124424	23.355174018564	7
165	124981	23.455203732961	7
165	125538	23.555220447273	7
165	126095	23.655185161493	7
165	126652	23.755214875618	7
165	127209	23.855179589641	7
165	127766	23.95519630356	7
165	128339	24.055187017371	7
165	128896	24.155255731071	7
165	129453	24.255181444654	7
165	130010	24.355185158119	7
165	130567	24.455162871463	7
165	131124	24.555166584685	7
165	131681	24.655196297791	7
165	132238	24.755265010788	7
165	132795	24.85522972369	7
165	133352	24.955181436517	7
165	133925	25.055185149286	7
165	134482	25.15522786202	7
165	135039	25.255218574739	7
165	135596	25.355222287465	7
165	136153	25.455252000217	7
165	136710	25.555203713009	7
165	137267	25.655220425853	7
165	137824	25.755198138759	7
165	138381	25.855253851735	7
165	138938	25.955205564788	7
165	139511	26.055261277925	7
165	140068	26.155238991153	7
165	140625	26.255255704476	7
165	141182	26.355194417897	7
165	141739	26.455185131421	7
165	142296	26.555162845054	7
165	142853	26.655179558797	7
165	143410	26.755235272654	7
165	143967	26.85521298663	7
165	144524	26.955216700723	7
165	145097	27.055181414939	7
165	145654	27.15521112927	7
165	146211	27.255214843711	7
165	146768	27.355205558245	7
165	147325	27.455170272856	7
165	147882	27.555264987522	7
165	148439	27.655190702223	7
165	148996	27.755246416936	7
165	149553	27.855250131642	7
165	150110	27.955253846322	7
165	150683	28.055192560962	7
165	151240	28.155183275551	7
165	151797	28.255264990079	7
165	152354	28.355216704534	7
165	152911	28.455207418911	7
165	153468	28.555185133203	7
165	154025	28.655240847407	7
165	154582	28.755244561517	7
165	155139	28.855248275525	7
165	155696	28.95525198943	7
165	156269	29.055229703228	7
165	156826	29.155168416914	7
165	157383	29.255263130486	7
165	157940	29.355201843941	7
165	158497	29.455231557277	7
165	159054	29.555222270492	7
165	159611	29.655225983592	7
165	160168	29.755229696584	7
165	160725	29.855220409482	7
165	161282	29.955185122305	7
165	161855	30.055214835071	7
165	162412	30.155244547802	7
165	162969	30.255170260519	7
165	163526	30.355173973248	7
165	164083	30.455242686001	7
165	164640	30.555220398794	7
165	165197	30.655237111639	7
165	165754	30.755214824548	7
165	166311	30.855179537528	7
165	166868	30.955183250586	7
165	167441	31.055238963729	7
165	167998	31.155216676963	7
165	168555	31.255168390292	7
165	169112	31.355211103722	7
165	169669	31.455188817256	7
165	170226	31.555218530896	7
165	170783	31.655222244649	7
165	171340	31.755186958517	7
165	171897	31.855177672502	7
165	172454	31.955207386607	7
165	173027	32.055224100833	7
165	173584	32.155253815176	7
165	174141	32.255218529627	7
165	174698	32.355196244174	7
165	175255	32.455251958797	7
165	175812	32.555216673478	7
165	176369	32.655194388196	7
165	176926	32.755172102925	7
165	177483	32.855201817647	7
165	178040	32.955231532345	7
165	178613	33.055170247001	7
165	179170	33.155186961607	7
165	179727	33.255203676151	7
165	180284	33.355259390624	7
165	180841	33.45522410502	7
165	181398	33.555162819333	7
165	181955	33.655192533555	7
165	182512	33.755235247682	7
165	183069	33.85525196171	7
165	183626	33.955255675634	7
165	184199	34.055259389452	7
165	184756	34.155237103159	7
165	185313	34.255201816751	7
165	185870	34.355231530227	7
165	186427	34.455209243584	7
165	186984	34.555251956822	7
165	187541	34.655164669943	7
165	188098	34.755168382956	7
165	188655	34.855185095877	7
165	189212	34.955240808721	7
165	189785	35.055218521509	7
165	190342	35.155209234263	7
165	190899	35.255173947003	7
165	191456	35.355177659754	7
165	192013	35.45520737253	7
165	192570	35.555263085346	7
165	193127	35.655162798215	7
165	193684	35.755244511148	7
165	194241	35.855183224152	7
165	194798	35.955212937234	7
165	195371	36.055164650402	7
165	195928	36.155233363662	7
165	196485	36.255237077018	7
165	197042	36.355162790472	7
165	197599	36.455218504031	7
165	198156	36.555222217697	7
165	198713	36.655251931476	7
165	199270	36.755242645369	7
165	199827	36.855207359381	7
165	200384	36.955263073511	7
165	200957	37.055188787764	7
165	201514	37.155257502132	7
165	202071	37.25520921661	7
165	202628	37.355238931182	7
165	203185	37.455190645832	7
165	203742	37.555194360539	7
165	204299	37.655211075284	7
165	204856	37.75525379004	7
165	205413	37.855244504787	7
165	205970	37.955248219511	7
165	206543	38.055225934193	7
165	207100	38.155203648825	7
165	207657	38.255168363395	7
165	208214	38.355185077895	7
165	208771	38.455175792317	7
165	209328	38.555179506655	7
165	209885	38.655170220903	7
165	210442	38.755212935058	7
165	210999	38.855164649115	7
165	211556	38.955168363064	7
165	212129	39.055224076909	7
165	212686	39.155175790641	7
165	213243	39.255244504262	7
165	213800	39.355209217764	7
165	214357	39.455199931146	7
165	214914	39.555216644409	7
165	215471	39.655194357555	7
165	216028	39.755211070596	7
165	216585	39.855162783542	7
165	217142	39.955218496412	7
165	217715	40.055222209227	7
165	218272	40.155173922007	7
165	218829	40.255242634774	7
165	219386	40.35520734755	7
165	219943	40.455263060352	7
165	220500	40.555175773195	7
165	221057	40.655179486089	7
165	221614	40.755209199046	7
165	222171	40.855264912075	7
165	222728	40.955255625183	7
165	223301	41.055181338377	7
165	223858	41.155185051662	7
165	224415	41.255162765043	7
165	224972	41.355166478523	7
165	225529	41.455196192107	7
165	226086	41.555264905799	7
165	226643	41.655164619602	7
165	227200	41.75523333352	7
165	227757	41.855211047556	7
165	228314	41.955253761712	7
165	228887	42.055257475989	7
165	229444	42.155222190383	7
165	230001	42.255238904884	7
165	230558	42.35521661948	7
165	231115	42.455220334153	7
165	231672	42.555237048886	7
165	232229	42.655175763652	7
165	232786	42.755218478431	7
165	233343	42.855248193203	7
165	233900	42.955186907949	7
165	234473	43.055216622656	7
165	235030	43.155194337311	7
165	235587	43.255250051905	7
165	236144	43.355188766427	7
165	236701	43.455257480873	7
165	237258	43.555196195234	7
165	237815	43.655199909503	7
165	238372	43.75524262368	7
165	238929	43.855220337756	7
165	239486	43.955250051729	7
165	240059	44.055188765595	7
165	240616	44.155257479351	7
165	241173	44.255261192993	7
165	241730	44.355173906518	7
165	242287	44.455164619924	7
165	242844	44.555194333208	7
165	243401	44.655237046376	7
165	243958	44.755227759438	7
165	244515	44.855166472406	7
165	245072	44.955209185297	7
165	245645	45.055251898133	7
165	246202	45.155255610934	7
165	246759	45.255233323722	7
165	247316	45.355263036519	7
165	247873	45.455175749341	7
165	248430	45.555205462205	7
165	248987	45.65526117512	7
165	249544	45.755212888098	7
165	250101	45.855229601147	7
165	250658	45.955181314274	7
165	251231	46.055172027488	7
165	251788	46.155214740793	7
165	252345	46.255244454192	7
165	252902	46.35518316769	7
165	253459	46.455212881293	7
165	254016	46.555177595004	7
165	254573	46.655168308827	7
165	255130	46.755250022764	7
165	255687	46.855201736819	7
165	256244	46.955166450995	7
165	256817	47.055170165291	7
165	257374	47.155264879704	7
165	257931	47.255177594224	7
165	258488	47.355207308839	7
165	259045	47.455211023532	7
165	259602	47.555214738281	7
165	260159	47.655231453066	7
165	260716	47.755222167862	7
165	261273	47.855264882651	7
165	261830	47.955177597416	7
165	262403	48.055168312141	7
165	262960	48.155185026813	7
165	263517	48.255188741423	7
165	264074	48.355179455962	7
165	264631	48.455261170424	7
165	265188	48.555173884801	7
165	265745	48.655216599088	7
165	266302	48.75524631328	7
165	266859	48.855198027373	7
165	267416	48.955175741363	7
165	267989	49.055179455247	7
165	268546	49.155196169018	7
165	269103	49.255173882676	7
165	269660	49.355255596217	7
165	270217	49.455246309638	7
165	270774	49.555185022938	7
165	271331	49.655253736121	7
165	271888	49.755218449198	7
165	272445	49.855196162182	7
165	273002	49.955264875088	7
165	273575	50.055255587937	7
165	274132	50.155220300753	7
165	274689	50.255224013556	7
165	275246	50.355162726368	7
165	275803	50.455179439205	7
165	276360	50.555235152082	7
165	276917	50.655212865012	7
165	277474	50.755229578003	7
165	278031	50.855207291067	7
165	278588	50.95518500421	7
165	279161	51.055253717436	7
165	279718	51.155179430754	7
165	280275	51.255209144168	7
165	280832	51.35525185768	7
165	281389	51.455164571297	7
165	281946	51.555168285022	7
165	282503	51.655210998858	7
165	283060	51.755162712808	7
165	283617	51.855192426876	7
165	284174	51.955248141064	7
165	284747	52.055225855373	7
165	285304	52.155255569796	7
165	285861	52.255194284329	7
165	286418	52.355171998957	7
165	286975	52.455162713662	7
165	287532	52.555218428424	7
165	288089	52.655235143221	7
165	288646	52.755212858029	7
165	289203	52.855164572831	7
165	289760	52.955168287604	7
165	290333	53.055185002339	7
165	290890	53.155253717022	7
165	291447	53.255218431645	7
165	292004	53.355170146196	7
165	292561	53.455251860669	7
165	293118	53.555177575058	7
165	293675	53.655220289356	7
165	294232	53.755263003559	7
165	294789	53.855253717662	7
165	295346	53.955244431663	7
165	295919	54.055261145556	7
165	296476	54.155264859339	7
165	297033	54.255255573008	7
165	297590	54.355246286558	7
165	298147	54.455236999989	7
165	298704	54.5552407133	7
165	299261	54.655179426494	7
165	299818	54.75523513958	7
165	300375	54.855173852574	7
165	300932	54.955242565489	7
165	301505	55.055220278347	7
165	302062	55.155171991171	7
165	302619	55.255227703983	7
165	303176	55.355257416805	7
165	303733	55.455196129651	7
165	304290	55.555251842536	7
165	304847	55.655177555474	7
165	305404	55.755259268476	7
165	305961	55.855262981549	7
165	306518	55.955240694699	7
165	307091	56.055192407935	7
165	307648	56.155170121261	7
165	308205	56.255199834681	7
165	308762	56.355242548201	7
165	309319	56.455168261826	7
165	309876	56.555210975559	7
165	310433	56.655188689403	7
165	310990	56.755192403362	7
165	311547	56.855222117438	7
165	312104	56.955251831634	7
165	312677	57.055216545952	7
165	313234	57.155168260386	7
165	313791	57.255262974926	7
165	314348	57.35520168956	7
165	314905	57.455179404271	7
165	315462	57.555183119041	7
165	316019	57.655186833845	7
165	316576	57.755164548661	7
165	317133	57.855194263468	7
165	317690	57.955223978251	7
165	318263	58.055214692994	7
165	318820	58.155166407686	7
165	319377	58.255170122313	7
165	319934	58.355225836871	7
165	320491	58.455229551352	7
165	321048	58.555168265746	7
165	321605	58.655184980052	7
165	322162	58.755227694264	7
165	322719	58.855179408375	7
165	323276	58.955248122383	7
165	323849	59.055225836283	7
165	324406	59.155190550072	7
165	324963	59.255246263746	7
165	325520	59.355249977303	7
165	326077	59.455214690739	7
165	326634	59.555179404056	7
165	327191	59.655248117257	7
165	327748	59.75526483035	7
165	328305	59.85524254335	7
165	328862	59.955259256273	7
164	5115	2	0
164	10685	3	0
164	16253	4	0
164	21822	5	0
164	27399	6	0
164	32977	7	0
164	38555	8	0
164	44133	9	0
164	49719	10	0
164	55305	11	0
164	60891	12	0
164	66477	13	0
164	72063	14	0
164	77649	15	0
164	83235	16	0
164	88821	17	0
164	94407	18	0
164	99993	19	0
164	105579	20	0
164	111165	21	0
164	116751	22	0
164	122337	23	0
164	127923	24	0
164	133509	25	0
164	139095	26	0
164	144681	27	0
164	150267	28	0
164	155853	29	0
164	161439	30	0
164	167025	31	0
164	172611	32	0
164	178197	33	0
164	183783	34	0
164	189369	35	0
164	194955	36	0
164	200541	37	0
164	206127	38	0
164	211713	39	0
164	217299	40	0
164	222885	41	0
164	228471	42	0
164	234057	43	0
164	239643	44	0
164	245229	45	0
164	250815	46	0
164	256401	47	0
164	261987	48	0
164	267573	49	0
164	273159	50	0
164	278745	51	0
164	284331	52	0
164	289917	53	0
164	295503	54	0
164	301089	55	0
164	306675	56	0
164	312261	57	0
164	317847	58	0
164	323433	59	0
164	329019	60	0
163	5115	2	0.034729
163	10685	3	0.03969
163	16253	4	0.03969
163	21822	5	0.03969
163	27399	6	0.03969
163	32977	7	0.03969
163	38555	8	0.03969
163	44133	9	0.03969
163	49719	10	0.03969
163	55305	11	0.03969
163	60891	12	0.03969
163	66477	13	0.03969
163	72063	14	0.03969
163	77649	15	0.03969
163	83235	16	0.03969
163	88821	17	0.03969
163	94407	18	0.03969
163	99993	19	0.03969
163	105579	20	0.03969
163	111165	21	0.03969
163	116751	22	0.03969
163	122337	23	0.03969
163	127923	24	0.03969
163	133509	25	0.03969
163	139095	26	0.03969
163	144681	27	0.03969
163	150267	28	0.03969
163	155853	29	0.03969
163	161439	30	0.03969
163	167025	31	0.03969
163	172611	32	0.03969
163	178197	33	0.03969
163	183783	34	0.03969
163	189369	35	0.03969
163	194955	36	0.03969
163	200541	37	0.03969
163	206127	38	0.03969
163	211713	39	0.03969
163	217299	40	0.03969
163	222885	41	0.03969
163	228471	42	0.03969
163	234057	43	0.03969
163	239643	44	0.03969
163	245229	45	0.03969
163	250815	46	0.03969
163	256401	47	0.03969
163	261987	48	0.03969
163	267573	49	0.03969
163	273159	50	0.03969
163	278745	51	0.03969
163	284331	52	0.03969
163	289917	53	0.03969
163	295503	54	0.03969
163	301089	55	0.03969
163	306675	56	0.03969
163	312261	57	0.03969
163	317847	58	0.03969
163	323433	59	0.03969
163	329019	60	0.03969
162	5115	2	7
162	10685	3	7
162	16253	4	7
162	21822	5	7
162	27399	6	7
162	32977	7	7
162	38555	8	7
162	44133	9	7
162	49719	10	7
162	55305	11	7
162	60891	12	7
162	66477	13	7
162	72063	14	7
162	77649	15	7
162	83235	16	7
162	88821	17	7
162	94407	18	7
162	99993	19	7
162	105579	20	7
162	111165	21	7
162	116751	22	7
162	122337	23	7
162	127923	24	7
162	133509	25	7
162	139095	26	7
162	144681	27	7
162	150267	28	7
162	155853	29	7
162	161439	30	7
162	167025	31	7
162	172611	32	7
162	178197	33	7
162	183783	34	7
162	189369	35	7
162	194955	36	7
162	200541	37	7
162	206127	38	7
162	211713	39	7
162	217299	40	7
162	222885	41	7
162	228471	42	7
162	234057	43	7
162	239643	44	7
162	245229	45	7
162	250815	46	7
162	256401	47	7
162	261987	48	7
162	267573	49	7
162	273159	50	7
162	278745	51	7
162	284331	52	7
162	289917	53	7
162	295503	54	7
162	301089	55	7
162	306675	56	7
162	312261	57	7
162	317847	58	7
162	323433	59	7
162	329019	60	7
