version 2
run Sinusoidal-2-20170512-21:54:58-2677
attr beaconInterval 0.1
attr configname Sinusoidal
attr controller 1
attr datetime 20170512-21:54:58
attr experiment Sinusoidal
attr headway 0.1
attr inifile examples/platooning/omnetpp.ini
attr iterationvars "$nCars=3, $platoonSize=8, $nLanes=1, $nTrucks=3, $nBus=2, $ploegH=0.5, $controller=1, $sController=\"CACC\", $headway=0.1, $leaderHeadway=1.2, $leaderSpeed=100, $beaconInterval=0.1, $priority=2, $packetSize=200, $0=\"1,2,1,3,2,2,1,3\", $1=15, $2=0"
attr iterationvars2 "$nCars=3, $platoonSize=8, $nLanes=1, $nTrucks=3, $nBus=2, $ploegH=0.5, $controller=1, $sController=\"CACC\", $headway=0.1, $leaderHeadway=1.2, $leaderSpeed=100, $beaconInterval=0.1, $priority=2, $packetSize=200, $0=\"1,2,1,3,2,2,1,3\", $1=15, $2=0, $repetition=0"
attr leaderHeadway 1.2
attr leaderSpeed 100
attr measurement "$nCars=3, $platoonSize=8, $nLanes=1, $nTrucks=3, $nBus=2, $ploegH=0.5, $controller=1, $sController=\"CACC\", $headway=0.1, $leaderHeadway=1.2, $leaderSpeed=100, $beaconInterval=0.1, $priority=2, $packetSize=200, $0=\"1,2,1,3,2,2,1,3\", $1=15, $2=0"
attr nBus 2
attr nCars 3
attr nLanes 1
attr nTrucks 3
attr network scenario
attr packetSize 200
attr platoonSize 8
attr ploegH 0.5
attr priority 2
attr processid 2677
attr repetition 0
attr replication #0
attr resultdir results
attr runnumber 2
attr sController "\"CACC\""
attr seedset 0
param **.coreDebug false
param **.debug false
param **.headway "${headway = 0.3, 1.2, 0.1, 0.1, 0.1 ! controller}s"
param **.numberOfBus "${nBus = 2}"
param **.numberOfCars "${nCars = 3}"
param **.numberOfCarsPerPlatoon "${platoonSize = 8}"
param **.numberOfLanes "${nLanes = 1}"
param **.numberOfTrucks "${nTrucks = 3}"
param **.numericController "${controller = 0, 0, 1, 2, 3}"
param **.seed ${repetition}
param **.traffic.nBus ${nBus}
param **.traffic.nCars ${nCars}
param **.traffic.nLanes ${nLanes}
param **.traffic.nTrucks ${nTrucks}
param **.traffic.platoonInsertDistance "${2, 2, 15, 2, 15 ! controller}m"
param **.traffic.platoonInsertHeadway "${0.3, 1.2, 0, 0.5, 0.8 ! controller}s"
param **.traffic.platoonInsertSpeed ${leaderSpeed}kmph
param **.traffic.platoonInsertTime "1 s"
param **.traffic.platoonLeaderHeadway ${leaderHeadway}s
param **.traffic.platoonSize ${platoonSize}
param **.traffic.platooningVType "\"vtypeauto\""
param **.traffic.platooningVTypeBus "\"vtypebus\""
param **.traffic.platooningVTypeTruck "\"vtypeheter\""
param **.traffic.vehicleTypeInPlatoon "${\"1,2,1,3,2,2,1,3\"}"
param **.traffic_type "\"SimpleHeterogenous\""
param *.**.nic.mac1609_4.bitrate 6Mbps
param *.**.nic.mac1609_4.txPower 100mW
param *.**.nic.mac1609_4.useServiceChannel false
param *.**.nic.phy80211p.analogueModels "xmldoc(\"/home/hh-ide/src/plexe-veins/examples/platooning/config.xml\")"
param *.**.nic.phy80211p.decider "xmldoc(\"/home/hh-ide/src/plexe-veins/examples/platooning/config.xml\")"
param *.**.nic.phy80211p.maxTXPower 100mW
param *.**.nic.phy80211p.sensitivity -94dBm
param *.**.nic.phy80211p.thermalNoise -95dBm
param *.**.nic.phy80211p.usePropagationDelay true
param *.**.nic.phy80211p.useThermalNoise true
param *.annotations.draw false
param *.connectionManager.alpha 2.0
param *.connectionManager.carrierFrequency "5.890e9 Hz"
param *.connectionManager.maxInterfDist 0
param *.connectionManager.pMax 100mW
param *.connectionManager.sat -94dBm
param *.connectionManager.sendDirect true
param *.manager.autoShutdown true
param *.manager.commandLine "\"sumo-gui --remote-port $port --seed $seed --configuration-file $configFile\""
param *.manager.configFile "\"/home/hh-ide/src/plexe-veins/examples/platooning/sumocfg/freeway.sumo.cfg\""
param *.manager.host "\"localhost\""
param *.manager.margin 25
param *.manager.moduleDisplayString "\"\""
param *.manager.moduleName "\"node\""
param *.manager.moduleType "\"Car\""
param *.manager.updateInterval 0.01s
param *.node[*].appl.simulationDuration "60 s"
param *.node[*].appl_type "\"SimplePlatooningApp\""
param *.node[*].helper.nBus ${nBus}
param *.node[*].helper.nCars ${nCars}
param *.node[*].helper.nLanes ${nLanes}
param *.node[*].helper.nTrucks ${nTrucks}
param *.node[*].helper.platoonSize ${platoonSize}
param *.node[*].helper_type "\"PositionHelper\""
param *.node[*].mobility.x 0
param *.node[*].mobility.y 0
param *.node[*].mobility.z 1.895
param *.node[*].prot.beaconingInterval "${beaconInterval = 0.1}s"
param *.node[*].prot.packetSize "${packetSize = 200}"
param *.node[*].prot.priority "${priority = 2}"
param *.node[*].prot.useControllerAcceleration true
param *.node[*].protocol_type "\"SimplePlatooningBeaconing\""
param *.node[*].scenario.accHeadway ${headway}s
param *.node[*].scenario.caccC1 0.5
param *.node[*].scenario.caccOmegaN "0.2 Hz"
param *.node[*].scenario.caccXi 1
param *.node[*].scenario.controller "${sController = \"ACC\", \"ACC\", \"CACC\", \"PLOEG\", \"CONSENSUS\" ! controller}"
param *.node[*].scenario.engineTau "0.5 s"
param *.node[*].scenario.leaderHeadway "${leaderHeadway = 1.2}s"
param *.node[*].scenario.leaderOscillationFrequency "0.2 Hz"
param *.node[*].scenario.leaderSpeed "${leaderSpeed = 100}kmph"
param *.node[*].scenario.oscillationAmplitude "10 kmph"
param *.node[*].scenario.ploegH "${ploegH = 0.5}s"
param *.node[*].scenario.ploegKd 0.7
param *.node[*].scenario.ploegKp 0.2
param *.node[*].scenario.startOscillating "5 s"
param *.node[*].scenario.useRealisticEngine false
param *.node[*].scenario_type "\"SinusoidalScenario\""
param *.node[*].unicast.packetLossRate 0
param *.obstacles.debug false
param *.playgroundSizeX 65000m
param *.playgroundSizeY 25000m
param *.playgroundSizeZ 50m
param *.world.use2D false
param *.world.useTorus false

vector 0  scenario.node[0].appl  distance  ETV
vector 1  scenario.node[0].appl  relativeSpeed  ETV
vector 2  scenario.node[0].appl  nodeId  ETV
vector 6  scenario.node[0].appl  acceleration  ETV
vector 7  scenario.node[0].appl  controllerAcceleration  ETV
vector 3  scenario.node[0].appl  speed  ETV
vector 4  scenario.node[0].appl  posx  ETV
vector 5  scenario.node[0].appl  posy  ETV
vector 22  scenario.node[1].appl  distance  ETV
vector 23  scenario.node[1].appl  relativeSpeed  ETV
vector 24  scenario.node[1].appl  nodeId  ETV
vector 28  scenario.node[1].appl  acceleration  ETV
vector 29  scenario.node[1].appl  controllerAcceleration  ETV
vector 25  scenario.node[1].appl  speed  ETV
vector 26  scenario.node[1].appl  posx  ETV
vector 27  scenario.node[1].appl  posy  ETV
vector 44  scenario.node[2].appl  distance  ETV
vector 45  scenario.node[2].appl  relativeSpeed  ETV
vector 46  scenario.node[2].appl  nodeId  ETV
vector 50  scenario.node[2].appl  acceleration  ETV
vector 51  scenario.node[2].appl  controllerAcceleration  ETV
vector 47  scenario.node[2].appl  speed  ETV
vector 48  scenario.node[2].appl  posx  ETV
vector 49  scenario.node[2].appl  posy  ETV
vector 66  scenario.node[3].appl  distance  ETV
vector 67  scenario.node[3].appl  relativeSpeed  ETV
vector 68  scenario.node[3].appl  nodeId  ETV
vector 72  scenario.node[3].appl  acceleration  ETV
vector 73  scenario.node[3].appl  controllerAcceleration  ETV
vector 69  scenario.node[3].appl  speed  ETV
vector 70  scenario.node[3].appl  posx  ETV
vector 71  scenario.node[3].appl  posy  ETV
vector 88  scenario.node[4].appl  distance  ETV
vector 89  scenario.node[4].appl  relativeSpeed  ETV
vector 90  scenario.node[4].appl  nodeId  ETV
vector 94  scenario.node[4].appl  acceleration  ETV
vector 95  scenario.node[4].appl  controllerAcceleration  ETV
vector 91  scenario.node[4].appl  speed  ETV
vector 92  scenario.node[4].appl  posx  ETV
vector 93  scenario.node[4].appl  posy  ETV
vector 110  scenario.node[5].appl  distance  ETV
vector 111  scenario.node[5].appl  relativeSpeed  ETV
vector 112  scenario.node[5].appl  nodeId  ETV
vector 116  scenario.node[5].appl  acceleration  ETV
vector 117  scenario.node[5].appl  controllerAcceleration  ETV
vector 113  scenario.node[5].appl  speed  ETV
vector 114  scenario.node[5].appl  posx  ETV
vector 115  scenario.node[5].appl  posy  ETV
vector 132  scenario.node[6].appl  distance  ETV
vector 133  scenario.node[6].appl  relativeSpeed  ETV
vector 134  scenario.node[6].appl  nodeId  ETV
vector 138  scenario.node[6].appl  acceleration  ETV
vector 139  scenario.node[6].appl  controllerAcceleration  ETV
vector 135  scenario.node[6].appl  speed  ETV
vector 136  scenario.node[6].appl  posx  ETV
vector 137  scenario.node[6].appl  posy  ETV
vector 154  scenario.node[7].appl  distance  ETV
vector 155  scenario.node[7].appl  relativeSpeed  ETV
vector 156  scenario.node[7].appl  nodeId  ETV
vector 160  scenario.node[7].appl  acceleration  ETV
vector 161  scenario.node[7].appl  controllerAcceleration  ETV
vector 157  scenario.node[7].appl  speed  ETV
vector 158  scenario.node[7].appl  posx  ETV
vector 159  scenario.node[7].appl  posy  ETV
vector 8  scenario.node[0].prot  nodeId  ETV
vector 9  scenario.node[0].prot  busyTime  ETV
vector 10  scenario.node[0].prot  collisions  ETV
vector 30  scenario.node[1].prot  nodeId  ETV
vector 31  scenario.node[1].prot  busyTime  ETV
vector 32  scenario.node[1].prot  collisions  ETV
vector 52  scenario.node[2].prot  nodeId  ETV
vector 53  scenario.node[2].prot  busyTime  ETV
vector 54  scenario.node[2].prot  collisions  ETV
vector 74  scenario.node[3].prot  nodeId  ETV
vector 75  scenario.node[3].prot  busyTime  ETV
vector 76  scenario.node[3].prot  collisions  ETV
vector 96  scenario.node[4].prot  nodeId  ETV
vector 97  scenario.node[4].prot  busyTime  ETV
vector 98  scenario.node[4].prot  collisions  ETV
vector 118  scenario.node[5].prot  nodeId  ETV
vector 119  scenario.node[5].prot  busyTime  ETV
vector 120  scenario.node[5].prot  collisions  ETV
vector 140  scenario.node[6].prot  nodeId  ETV
vector 141  scenario.node[6].prot  busyTime  ETV
vector 142  scenario.node[6].prot  collisions  ETV
vector 162  scenario.node[7].prot  nodeId  ETV
vector 163  scenario.node[7].prot  busyTime  ETV
vector 164  scenario.node[7].prot  collisions  ETV
7	243	1.11	-8.430731206488e-07
7	362	1.21	-8.247038785214e-07
7	480	1.31	-7.948429328053e-07
7	599	1.41	-7.5609037608615e-07
7	718	1.51	-7.1073863239235e-07
7	836	1.61	-6.6078666094427e-07
7	954	1.71	-6.079568990458e-07
7	1073	1.81	-5.5371389606762e-07
7	1191	1.91	-4.9928438983216e-07
7	1320	2.01	-4.4567811841034e-07
7	1438	2.11	-3.9370868165634e-07
7	1556	2.21	-3.4401411852514e-07
7	1674	2.31	-2.9707706872273e-07
7	1792	2.41	-2.5324398578164e-07
7	1910	2.51	-2.1274344064182e-07
7	2028	2.61	-1.7570315336002e-07
7	2146	2.71	-1.4216582755466e-07
7	2264	2.81	-1.1210364547765e-07
7	2382	2.91	-8.5431519636359e-08
7	2508	3.01	-6.2018816748832e-08
7	2626	3.11	-4.1699859565369e-08
7	2744	3.21	-2.4283316690799e-08
7	2862	3.31	-9.5601571103998e-09
7	2980	3.41	2.6894362292751e-09
7	3098	3.51	1.2690140493987e-08
7	3216	3.61	2.0666576006079e-08
7	3334	3.71	2.6839355626862e-08
7	3452	3.81	3.1421798496467e-08
7	3570	3.91	3.4617407607129e-08
7	3696	4.01	3.6617997523081e-08
7	3814	4.11	3.7602347902066e-08
7	3932	4.21	3.7735404134764e-08
7	4050	4.31	3.7167730226884e-08
7	4168	4.41	3.6035434192172e-08
7	4286	4.51	3.446024621212e-08
7	4404	4.61	3.2549973383311e-08
7	4522	4.71	3.0399071704323e-08
7	4640	4.81	2.8089345960325e-08
7	4758	4.91	2.5690727767369e-08
7	4893	5.01	2.326218861981e-08
7	5020	5.11	0.34814789186464
7	5147	5.21	0.68726937161622
7	5274	5.31	1.0064706311115
7	5401	5.41	1.2963311698934
7	5528	5.51	1.5
7	5655	5.61	1.5
7	5782	5.71	1.5
7	5909	5.81	1.5
7	6036	5.91	1.5
7	6171	6.01	1.5
7	6298	6.11	1.5
7	6425	6.21	1.5
7	6552	6.31	1.5
7	6679	6.41	1.5
7	6806	6.51	1.4919234148491
7	6933	6.61	1.226499329248
7	7060	6.71	0.92305384082895
7	7187	6.81	0.58908102066068
7	7314	6.91	0.2323562172788
7	7449	7.01	-0.13919559696193
7	7576	7.11	-0.51762846464532
7	7703	7.21	-0.89509993840359
7	7830	7.31	-1.2639902875456
7	7957	7.41	-1.5
7	8084	7.51	-1.5
7	8211	7.61	-1.5
7	8338	7.71	-1.5
7	8465	7.81	-1.5
7	8592	7.91	-1.5
7	8727	8.01	-1.5
7	8854	8.11	-1.5
7	8981	8.21	-1.5
7	9108	8.31	-1.5
7	9235	8.41	-1.5
7	9362	8.51	-1.5
7	9489	8.61	-1.5
7	9616	8.71	-1.5
7	9743	8.81	-1.5
7	9870	8.91	-1.5
7	10005	9.01	-1.5
7	10132	9.11	-1.5
7	10259	9.21	-1.5
7	10386	9.31	-1.5
7	10513	9.41	-1.5
7	10640	9.51	-1.1784535904302
7	10767	9.61	-0.73985166419522
7	10894	9.71	-0.29046662059022
7	11021	9.81	0.15868205669937
7	11148	9.91	0.59737147691163
7	11283	10.01	1.0162504341895
7	11410	10.11	1.4069035498921
7	11537	10.21	1.5
7	11664	10.31	1.5
6	243	1.11	-1.2391545567425e-07
6	362	1.21	-2.514333630188e-07
6	480	1.31	-3.5153284727585e-07
6	599	1.41	-4.2734420446777e-07
6	718	1.51	-4.8187125401e-07
6	836	1.61	-5.1795971955926e-07
6	954	1.71	-5.3827413637464e-07
6	1073	1.81	-5.4528506154838e-07
6	1191	1.91	-5.4125663950799e-07
6	1320	2.01	-5.2824375984528e-07
6	1438	2.11	-5.080941889446e-07
6	1556	2.21	-4.8245141215375e-07
6	1674	2.31	-4.5276244975412e-07
6	1792	2.41	-4.202860282021e-07
6	1910	2.51	-3.8610643571246e-07
6	2028	2.61	-3.5114133822844e-07
6	2146	2.71	-3.1616025353287e-07
6	2264	2.81	-2.8179307776099e-07
6	2382	2.91	-2.4854536206931e-07
6	2508	3.01	-2.1681287876163e-07
6	2626	3.11	-1.8689298997288e-07
6	2744	3.21	-1.5899530581009e-07
6	2862	3.31	-1.3325838210676e-07
6	2980	3.41	-1.0975469422192e-07
6	3098	3.51	-8.8505203166278e-08
6	3216	3.61	-6.948575048682e-08
6	3334	3.71	-5.263665059374e-08
6	3452	3.81	-3.7870506730542e-08
6	3570	3.91	-2.5077895315917e-08
6	3696	4.01	-1.4133405557004e-08
6	3814	4.11	-4.9016790626411e-09
6	3932	4.21	2.7593927143243e-09
6	4050	4.31	8.9940499492513e-09
6	4168	4.41	1.3947598631603e-08
6	4286	4.51	1.7761081494427e-08
6	4404	4.61	2.0570567471623e-08
6	4522	4.71	2.2507151697937e-08
6	4640	4.81	2.3691626438449e-08
6	4758	4.91	2.4239099616352e-08
6	4893	5.01	2.4253310471067e-08
6	5020	5.11	0.0068264526728257
6	5147	5.21	0.074594836732089
6	5274	5.31	0.19005134681258
6	5401	5.41	0.34050272642077
6	5528	5.51	0.51301638947834
6	5655	5.61	0.6902545856434
6	5782	5.71	0.83572672600098
6	5909	5.81	0.95506454902292
6	6036	5.91	1.0529631292492
6	6171	6.01	1.133274063098
6	6298	6.11	1.1991570011418
6	6425	6.21	1.2532039573571
6	6552	6.31	1.2975412860019
6	6679	6.41	1.333913338177
6	6806	6.51	1.3635927249268
6	6933	6.61	1.3702053615898
6	7060	6.71	1.3272611926745
6	7187	6.81	1.2373810921854
6	7314	6.91	1.1040433755532
6	7449	7.01	0.93147092012096
6	7576	7.11	0.72451590565734
6	7703	7.21	0.48854318346834
6	7830	7.31	0.2293132962599
6	7957	7.41	-0.044839398398011
6	8084	7.51	-0.30626147443016
6	8211	7.61	-0.52071863005345
6	8338	7.71	-0.69664819306503
6	8465	7.81	-0.84097171097959
6	8592	7.91	-0.95936726353223
6	8727	8.01	-1.0564928537818
6	8854	8.11	-1.1361696666178
6	8981	8.21	-1.2015324045674
6	9108	8.31	-1.2551526155189
6	9235	8.41	-1.2991398644115
6	9362	8.51	-1.3352247292573
6	9489	8.61	-1.3648268867847
6	9616	8.71	-1.3891109663845
6	9743	8.81	-1.4090323697992
6	9870	8.91	-1.4253748592211
6	10005	9.01	-1.4387813926344
6	10132	9.11	-1.4497794195275
6	10259	9.21	-1.4588016321909
6	10386	9.31	-1.4662029890104
6	10513	9.41	-1.4722746794938
6	10640	9.51	-1.4696249146823
6	10767	9.61	-1.3967850639141
6	10894	9.71	-1.2587757641274
6	11021	9.81	-1.0660952217858
6	11148	9.91	-0.82923335017639
6	11283	10.01	-0.55852907832801
6	11410	10.11	-0.26404116068406
6	11537	10.21	0.03943269874469
6	11664	10.31	0.30182609756224
5	243	1.11	36.55
5	362	1.21	36.55
5	480	1.31	36.55
5	599	1.41	36.55
5	718	1.51	36.55
5	836	1.61	36.55
5	954	1.71	36.55
5	1073	1.81	36.55
5	1191	1.91	36.55
5	1320	2.01	36.55
5	1438	2.11	36.55
5	1556	2.21	36.55
5	1674	2.31	36.55
5	1792	2.41	36.55
5	1910	2.51	36.55
5	2028	2.61	36.55
5	2146	2.71	36.55
5	2264	2.81	36.55
5	2382	2.91	36.55
5	2508	3.01	36.55
5	2626	3.11	36.55
5	2744	3.21	36.55
5	2862	3.31	36.55
5	2980	3.41	36.55
5	3098	3.51	36.55
5	3216	3.61	36.55
5	3334	3.71	36.55
5	3452	3.81	36.55
5	3570	3.91	36.55
5	3696	4.01	36.55
5	3814	4.11	36.55
5	3932	4.21	36.55
5	4050	4.31	36.55
5	4168	4.41	36.55
5	4286	4.51	36.55
5	4404	4.61	36.55
5	4522	4.71	36.55
5	4640	4.81	36.55
5	4758	4.91	36.55
5	4893	5.01	36.55
5	5020	5.11	36.55
5	5147	5.21	36.55
5	5274	5.31	36.55
5	5401	5.41	36.55
5	5528	5.51	36.55
5	5655	5.61	36.55
5	5782	5.71	36.55
5	5909	5.81	36.55
5	6036	5.91	36.55
5	6171	6.01	36.55
5	6298	6.11	36.55
5	6425	6.21	36.55
5	6552	6.31	36.55
5	6679	6.41	36.55
5	6806	6.51	36.55
5	6933	6.61	36.55
5	7060	6.71	36.55
5	7187	6.81	36.55
5	7314	6.91	36.55
5	7449	7.01	36.55
5	7576	7.11	36.55
5	7703	7.21	36.55
5	7830	7.31	36.55
5	7957	7.41	36.55
5	8084	7.51	36.55
5	8211	7.61	36.55
5	8338	7.71	36.55
5	8465	7.81	36.55
5	8592	7.91	36.55
5	8727	8.01	36.55
5	8854	8.11	36.55
5	8981	8.21	36.55
5	9108	8.31	36.55
5	9235	8.41	36.55
5	9362	8.51	36.55
5	9489	8.61	36.55
5	9616	8.71	36.55
5	9743	8.81	36.55
5	9870	8.91	36.55
5	10005	9.01	36.55
5	10132	9.11	36.55
5	10259	9.21	36.55
5	10386	9.31	36.55
5	10513	9.41	36.55
5	10640	9.51	36.55
5	10767	9.61	36.55
5	10894	9.71	36.55
5	11021	9.81	36.55
5	11148	9.91	36.55
5	11283	10.01	36.55
5	11410	10.11	36.55
5	11537	10.21	36.55
5	11664	10.31	36.55
4	243	1.11	169.21764297459
4	362	1.21	171.99542083538
4	480	1.31	174.77319869345
4	599	1.41	177.55097654785
4	718	1.51	180.32875439787
4	836	1.61	183.106532243
4	954	1.71	185.88431008291
4	1073	1.81	188.66208791742
4	1191	1.91	191.43986574648
4	1320	2.01	194.21764357016
4	1438	2.11	196.9954213886
4	1556	2.21	199.773199202
4	1674	2.31	202.55097701064
4	1792	2.41	205.32875481482
4	1910	2.51	208.10653261486
4	2028	2.61	210.88431041112
4	2146	2.71	213.66208820393
4	2264	2.81	216.43986599364
4	2382	2.91	219.21764378061
4	2508	3.01	221.99542156516
4	2626	3.11	224.77319934759
4	2744	3.21	227.55097712822
4	2862	3.31	230.3287549073
4	2980	3.41	233.1065326851
4	3098	3.51	235.88431046185
4	3216	3.61	238.66208823775
4	3334	3.71	241.43986601299
4	3452	3.81	244.21764378773
4	3570	3.91	246.99542156211
4	3696	4.01	249.77319933627
4	3814	4.11	252.55097711031
4	3932	4.21	255.32875488431
4	4050	4.31	258.10653265835
4	4168	4.41	260.8843104325
4	4286	4.51	263.66208820679
4	4404	4.61	266.43986598126
4	4522	4.71	269.21764375594
4	4640	4.81	271.99542153085
4	4758	4.91	274.773199306
4	4893	5.01	277.55097708139
4	5020	5.11	280.32875622231
4	5147	5.21	283.10676186517
4	5274	5.31	285.88576760165
4	5401	5.41	288.66699805937
4	5528	5.51	291.45200322204
4	5655	5.61	294.24251795207
4	5782	5.71	297.04022773395
4	5909	5.81	299.84653460807
4	6036	5.91	302.66258886772
4	6171	6.01	305.48933415399
4	6298	6.11	308.3275445813
4	6425	6.21	311.17785519306
4	6552	6.31	314.04078694607
4	6679	6.41	316.91676720634
4	6806	6.51	319.80614653119
4	6933	6.61	322.70918267053
4	7060	6.71	325.62582919141
4	7187	6.81	328.55555957731
4	7314	6.91	331.49738505188
4	7449	7.01	334.44989090231
4	7576	7.11	337.41128001412
4	7703	7.21	340.37942246134
4	7830	7.31	343.35190998463
4	7957	7.41	346.32611464703
4	8084	7.51	349.2993235213
4	8211	7.61	352.26903880106
4	8338	7.71	355.23319334101
4	8465	7.81	358.19009136201
4	8592	7.91	361.13834173453
4	8727	8.01	364.07680324781
4	8854	8.11	367.00453971155
4	8981	8.21	369.92078312365
4	9108	8.31	372.82490345485
4	9235	8.41	375.71638386177
4	9362	8.51	378.59480035277
4	9489	8.61	381.45980510706
4	9616	8.71	384.31111279045
4	9743	8.81	387.14848932951
4	9870	8.91	389.97174270249
4	10005	9.01	392.78071538469
4	10132	9.11	395.575278151
4	10259	9.21	398.35532499178
4	10386	9.31	401.12076894225
4	10513	9.41	403.87153866097
4	10640	9.51	406.60757788594
4	10767	9.61	409.32908191752
4	10894	9.71	412.03691207704
4	11021	9.81	414.7325601269
4	11148	9.91	417.41804318015
4	11283	10.01	420.09579907629
4	11410	10.11	422.76858353216
4	11537	10.21	425.43936930701
4	11664	10.31	428.11108461477
3	243	1.11	27.777778619612
3	362	1.21	27.777778599967
3	480	1.31	27.777778569105
3	599	1.41	27.777778529595
3	718	1.51	27.777778483698
3	836	1.61	27.777778433385
3	954	1.71	27.777778380352
3	1073	1.81	27.777778326039
3	1191	1.91	27.77777827165
3	1320	2.01	27.777778218173
3	1438	2.11	27.777778166406
3	1556	2.21	27.777778116967
3	1674	2.31	27.777778070327
3	1792	2.41	27.777778026819
3	1910	2.51	27.77777798666
3	2028	2.61	27.77777794997
3	2146	2.71	27.777777916782
3	2264	2.81	27.777777887063
3	2382	2.91	27.777777860724
3	2508	3.01	27.777777837628
3	2626	3.11	27.777777817609
3	2744	3.21	27.777777800471
3	2862	3.31	27.777777786005
3	2980	3.41	27.777777773991
3	3098	3.51	27.777777764203
3	3216	3.61	27.777777756416
3	3334	3.71	27.777777750412
3	3452	3.81	27.777777745977
3	3570	3.91	27.77777774291
3	3696	4.01	27.777777741018
3	3814	4.11	27.777777740126
3	3932	4.21	27.77777774007
3	4050	4.31	27.7777777407
3	4168	4.41	27.777777741882
3	4286	4.51	27.777777743495
3	4404	4.61	27.777777745434
3	4522	4.71	27.777777747604
3	4640	4.81	27.777777749925
3	4758	4.91	27.777777752329
3	4893	5.01	27.777777754758
3	5020	5.11	27.777846021452
3	5147	5.21	27.782059596653
3	5274	5.31	27.795775862036
3	5401	5.41	27.823056285431
3	5528	5.51	27.866721940626
3	5655	5.61	27.928063782047
3	5782	5.71	28.005327711868
3	5909	5.81	28.095658800357
3	6036	5.91	28.196709510244
3	6171	6.01	28.30655404332
3	6298	6.11	28.423612574297
3	6425	6.21	28.54658909619
3	6552	6.31	28.674420431867
3	6679	6.41	28.80623440578
3	6806	6.51	28.941313946553
3	6933	6.61	29.078388981218
3	7060	6.71	29.213351897492
3	7187	6.81	29.341385131305
3	7314	6.91	29.457981732945
3	7449	7.01	29.559024895864
3	7576	7.11	29.640856051762
3	7703	7.21	29.700331349918
3	7830	7.31	29.734866440411
3	7957	7.41	29.742492528104
3	8084	7.51	29.72320356612
3	8211	7.61	29.680432143932
3	8338	7.71	29.618396925437
3	8465	7.81	29.540558684394
3	8592	7.91	29.449756460671
3	8727	8.01	29.348319255796
3	8854	8.11	29.238157662213
3	8981	8.21	29.120839031188
3	9108	8.31	28.997649136664
3	9235	8.41	28.86964276111
3	9362	8.51	28.737685193533
3	9489	8.61	28.602486272297
3	9616	8.71	28.464628312097
3	9743	8.81	28.324589013804
3	9870	8.91	28.182760258515
3	10005	9.01	28.039463525222
3	10132	9.11	27.894962538668
3	10259	9.21	27.749473644999
3	10386	9.31	27.603174323409
3	10513	9.41	27.456210168651
3	10640	9.51	27.308798307138
3	10767	9.61	27.165456941051
3	10894	9.71	27.033088438825
3	11021	9.81	26.917629526736
3	11148	9.91	26.823966096352
3	11283	10.01	26.755942052805
3	11410	10.11	26.716381687291
3	11537	10.21	26.707072901132
3	11664	10.31	26.725876201723
1	243	1.11	0
1	362	1.21	0
1	480	1.31	0
1	599	1.41	0
1	718	1.51	0
1	836	1.61	0
1	954	1.71	0
1	1073	1.81	0
1	1191	1.91	0
1	1320	2.01	0
1	1438	2.11	0
1	1556	2.21	0
1	1674	2.31	0
1	1792	2.41	0
1	1910	2.51	0
1	2028	2.61	0
1	2146	2.71	0
1	2264	2.81	0
1	2382	2.91	0
1	2508	3.01	0
1	2626	3.11	0
1	2744	3.21	0
1	2862	3.31	0
1	2980	3.41	0
1	3098	3.51	0
1	3216	3.61	0
1	3334	3.71	0
1	3452	3.81	0
1	3570	3.91	0
1	3696	4.01	0
1	3814	4.11	0
1	3932	4.21	0
1	4050	4.31	0
1	4168	4.41	0
1	4286	4.51	0
1	4404	4.61	0
1	4522	4.71	0
1	4640	4.81	0
1	4758	4.91	0
1	4893	5.01	0
1	5020	5.11	0
1	5147	5.21	0
1	5274	5.31	0
1	5401	5.41	0
1	5528	5.51	0
1	5655	5.61	0
1	5782	5.71	0
1	5909	5.81	0
1	6036	5.91	0
1	6171	6.01	0
1	6298	6.11	0
1	6425	6.21	0
1	6552	6.31	0
1	6679	6.41	0
1	6806	6.51	0
1	6933	6.61	0
1	7060	6.71	0
1	7187	6.81	0
1	7314	6.91	0
1	7449	7.01	0
1	7576	7.11	0
1	7703	7.21	0
1	7830	7.31	0
1	7957	7.41	0
1	8084	7.51	0
1	8211	7.61	0
1	8338	7.71	0
1	8465	7.81	0
1	8592	7.91	0
1	8727	8.01	0
1	8854	8.11	0
1	8981	8.21	0
1	9108	8.31	0
1	9235	8.41	0
1	9362	8.51	0
1	9489	8.61	0
1	9616	8.71	0
1	9743	8.81	0
1	9870	8.91	0
1	10005	9.01	0
1	10132	9.11	0
1	10259	9.21	0
1	10386	9.31	0
1	10513	9.41	0
1	10640	9.51	0
1	10767	9.61	0
1	10894	9.71	0
1	11021	9.81	0
1	11148	9.91	0
1	11283	10.01	0
1	11410	10.11	0
1	11537	10.21	0
1	11664	10.31	0
0	243	1.11	-1
0	362	1.21	-1
0	480	1.31	-1
0	599	1.41	-1
0	718	1.51	-1
0	836	1.61	-1
0	954	1.71	-1
0	1073	1.81	-1
0	1191	1.91	-1
0	1320	2.01	-1
0	1438	2.11	-1
0	1556	2.21	-1
0	1674	2.31	-1
0	1792	2.41	-1
0	1910	2.51	-1
0	2028	2.61	-1
0	2146	2.71	-1
0	2264	2.81	-1
0	2382	2.91	-1
0	2508	3.01	-1
0	2626	3.11	-1
0	2744	3.21	-1
0	2862	3.31	-1
0	2980	3.41	-1
0	3098	3.51	-1
0	3216	3.61	-1
0	3334	3.71	-1
0	3452	3.81	-1
0	3570	3.91	-1
0	3696	4.01	-1
0	3814	4.11	-1
0	3932	4.21	-1
0	4050	4.31	-1
0	4168	4.41	-1
0	4286	4.51	-1
0	4404	4.61	-1
0	4522	4.71	-1
0	4640	4.81	-1
0	4758	4.91	-1
0	4893	5.01	-1
0	5020	5.11	-1
0	5147	5.21	-1
0	5274	5.31	-1
0	5401	5.41	-1
0	5528	5.51	-1
0	5655	5.61	-1
0	5782	5.71	-1
0	5909	5.81	-1
0	6036	5.91	-1
0	6171	6.01	-1
0	6298	6.11	-1
0	6425	6.21	-1
0	6552	6.31	-1
0	6679	6.41	-1
0	6806	6.51	-1
0	6933	6.61	-1
0	7060	6.71	-1
0	7187	6.81	-1
0	7314	6.91	-1
0	7449	7.01	-1
0	7576	7.11	-1
0	7703	7.21	-1
0	7830	7.31	-1
0	7957	7.41	-1
0	8084	7.51	-1
0	8211	7.61	-1
0	8338	7.71	-1
0	8465	7.81	-1
0	8592	7.91	-1
0	8727	8.01	-1
0	8854	8.11	-1
0	8981	8.21	-1
0	9108	8.31	-1
0	9235	8.41	-1
0	9362	8.51	-1
0	9489	8.61	-1
0	9616	8.71	-1
0	9743	8.81	-1
0	9870	8.91	-1
0	10005	9.01	-1
0	10132	9.11	-1
0	10259	9.21	-1
0	10386	9.31	-1
0	10513	9.41	-1
0	10640	9.51	-1
0	10767	9.61	-1
0	10894	9.71	-1
0	11021	9.81	-1
0	11148	9.91	-1
0	11283	10.01	-1
0	11410	10.11	-1
0	11537	10.21	-1
0	11664	10.31	-1
2	243	1.11	0
2	362	1.21	0
2	480	1.31	0
2	599	1.41	0
2	718	1.51	0
2	836	1.61	0
2	954	1.71	0
2	1073	1.81	0
2	1191	1.91	0
2	1320	2.01	0
2	1438	2.11	0
2	1556	2.21	0
2	1674	2.31	0
2	1792	2.41	0
2	1910	2.51	0
2	2028	2.61	0
2	2146	2.71	0
2	2264	2.81	0
2	2382	2.91	0
2	2508	3.01	0
2	2626	3.11	0
2	2744	3.21	0
2	2862	3.31	0
2	2980	3.41	0
2	3098	3.51	0
2	3216	3.61	0
2	3334	3.71	0
2	3452	3.81	0
2	3570	3.91	0
2	3696	4.01	0
2	3814	4.11	0
2	3932	4.21	0
2	4050	4.31	0
2	4168	4.41	0
2	4286	4.51	0
2	4404	4.61	0
2	4522	4.71	0
2	4640	4.81	0
2	4758	4.91	0
2	4893	5.01	0
2	5020	5.11	0
2	5147	5.21	0
2	5274	5.31	0
2	5401	5.41	0
2	5528	5.51	0
2	5655	5.61	0
2	5782	5.71	0
2	5909	5.81	0
2	6036	5.91	0
2	6171	6.01	0
2	6298	6.11	0
2	6425	6.21	0
2	6552	6.31	0
2	6679	6.41	0
2	6806	6.51	0
2	6933	6.61	0
2	7060	6.71	0
2	7187	6.81	0
2	7314	6.91	0
2	7449	7.01	0
2	7576	7.11	0
2	7703	7.21	0
2	7830	7.31	0
2	7957	7.41	0
2	8084	7.51	0
2	8211	7.61	0
2	8338	7.71	0
2	8465	7.81	0
2	8592	7.91	0
2	8727	8.01	0
2	8854	8.11	0
2	8981	8.21	0
2	9108	8.31	0
2	9235	8.41	0
2	9362	8.51	0
2	9489	8.61	0
2	9616	8.71	0
2	9743	8.81	0
2	9870	8.91	0
2	10005	9.01	0
2	10132	9.11	0
2	10259	9.21	0
2	10386	9.31	0
2	10513	9.41	0
2	10640	9.51	0
2	10767	9.61	0
2	10894	9.71	0
2	11021	9.81	0
2	11148	9.91	0
2	11283	10.01	0
2	11410	10.11	0
2	11537	10.21	0
2	11664	10.31	0
10	1288	2	0
10	2478	3	0
10	3666	4	0
10	4863	5	0
10	6132	6	0
10	7410	7	0
10	8688	8	0
10	9966	9	0
10	11244	10	0
9	1288	2	0.004473
9	2478	3	0.00497
9	3666	4	0.00497
9	4863	5	0.00497
9	6132	6	0.00497
9	7410	7	0.00497
9	8688	8	0.00497
9	9966	9	0.00497
9	11244	10	0.00497
8	1288	2	0
8	2478	3	0
8	3666	4	0
8	4863	5	0
8	6132	6	0
8	7410	7	0
8	8688	8	0
8	9966	9	0
8	11244	10	0
29	244	1.11	0
29	363	1.21	0
29	481	1.31	0
29	600	1.41	0
29	719	1.51	0
29	837	1.61	0
29	955	1.71	0
29	1074	1.81	0
29	1192	1.91	0
29	1321	2.01	0
29	1439	2.11	0
29	1557	2.21	0
29	1675	2.31	0
29	1793	2.41	0
29	1911	2.51	0
29	2029	2.61	0
29	2147	2.71	0
29	2265	2.81	0
29	2383	2.91	0
29	2509	3.01	0
29	2627	3.11	0
29	2745	3.21	0
29	2863	3.31	0
29	2981	3.41	0
29	3099	3.51	0
29	3217	3.61	0
29	3335	3.71	0
29	3453	3.81	0
29	3571	3.91	0
29	3697	4.01	0
29	3815	4.11	0
29	3933	4.21	0
29	4051	4.31	0
29	4169	4.41	0
29	4287	4.51	0
29	4405	4.61	0
29	4523	4.71	0
29	4641	4.81	0
29	4759	4.91	0
29	4894	5.01	0
29	5021	5.11	0
29	5148	5.21	0
29	5275	5.31	0
29	5402	5.41	0
29	5529	5.51	0
29	5656	5.61	0
29	5783	5.71	0
29	5910	5.81	0
29	6037	5.91	0
29	6172	6.01	0
29	6299	6.11	0
29	6426	6.21	0
29	6553	6.31	0
29	6680	6.41	0
29	6807	6.51	0
29	6934	6.61	0
29	7061	6.71	0
29	7188	6.81	0
29	7315	6.91	0
29	7450	7.01	0
29	7577	7.11	0
29	7704	7.21	0
29	7831	7.31	0
29	7958	7.41	0
29	8085	7.51	0
29	8212	7.61	0
29	8339	7.71	0
29	8466	7.81	0
29	8593	7.91	0
29	8728	8.01	0
29	8855	8.11	0
29	8982	8.21	0
29	9109	8.31	0
29	9236	8.41	0
29	9363	8.51	0
29	9490	8.61	0
29	9617	8.71	0
29	9744	8.81	0
29	9871	8.91	0
29	10006	9.01	0
29	10133	9.11	0
29	10260	9.21	0
29	10387	9.31	0
29	10514	9.41	0
29	10641	9.51	0
29	10768	9.61	0
29	10895	9.71	0
29	11022	9.81	0
29	11149	9.91	0
29	11284	10.01	0
29	11411	10.11	0
29	11538	10.21	0
29	11665	10.31	0
28	244	1.11	0
28	363	1.21	0
28	481	1.31	0
28	600	1.41	0
28	719	1.51	0
28	837	1.61	0
28	955	1.71	0
28	1074	1.81	0
28	1192	1.91	0
28	1321	2.01	0
28	1439	2.11	0
28	1557	2.21	0
28	1675	2.31	0
28	1793	2.41	0
28	1911	2.51	0
28	2029	2.61	0
28	2147	2.71	0
28	2265	2.81	0
28	2383	2.91	0
28	2509	3.01	0
28	2627	3.11	0
28	2745	3.21	0
28	2863	3.31	0
28	2981	3.41	0
28	3099	3.51	0
28	3217	3.61	0
28	3335	3.71	0
28	3453	3.81	0
28	3571	3.91	0
28	3697	4.01	0
28	3815	4.11	0
28	3933	4.21	0
28	4051	4.31	0
28	4169	4.41	0
28	4287	4.51	0
28	4405	4.61	0
28	4523	4.71	0
28	4641	4.81	0
28	4759	4.91	0
28	4894	5.01	0
28	5021	5.11	0
28	5148	5.21	0
28	5275	5.31	0
28	5402	5.41	0
28	5529	5.51	0
28	5656	5.61	0
28	5783	5.71	0
28	5910	5.81	0
28	6037	5.91	0
28	6172	6.01	0
28	6299	6.11	0
28	6426	6.21	0
28	6553	6.31	0
28	6680	6.41	0
28	6807	6.51	0
28	6934	6.61	0
28	7061	6.71	0
28	7188	6.81	0
28	7315	6.91	0
28	7450	7.01	0
28	7577	7.11	0
28	7704	7.21	0
28	7831	7.31	0
28	7958	7.41	0
28	8085	7.51	0
28	8212	7.61	0
28	8339	7.71	0
28	8466	7.81	0
28	8593	7.91	0
28	8728	8.01	0
28	8855	8.11	0
28	8982	8.21	0
28	9109	8.31	0
28	9236	8.41	0
28	9363	8.51	0
28	9490	8.61	0
28	9617	8.71	0
28	9744	8.81	0
28	9871	8.91	0
28	10006	9.01	0
28	10133	9.11	0
28	10260	9.21	0
28	10387	9.31	0
28	10514	9.41	0
28	10641	9.51	0
28	10768	9.61	0
28	10895	9.71	0
28	11022	9.81	0
28	11149	9.91	0
28	11284	10.01	0
28	11411	10.11	0
28	11538	10.21	0
28	11665	10.31	0
27	244	1.11	36.55
27	363	1.21	36.55
27	481	1.31	36.55
27	600	1.41	36.55
27	719	1.51	36.55
27	837	1.61	36.55
27	955	1.71	36.55
27	1074	1.81	36.55
27	1192	1.91	36.55
27	1321	2.01	36.55
27	1439	2.11	36.55
27	1557	2.21	36.55
27	1675	2.31	36.55
27	1793	2.41	36.55
27	1911	2.51	36.55
27	2029	2.61	36.55
27	2147	2.71	36.55
27	2265	2.81	36.55
27	2383	2.91	36.55
27	2509	3.01	36.55
27	2627	3.11	36.55
27	2745	3.21	36.55
27	2863	3.31	36.55
27	2981	3.41	36.55
27	3099	3.51	36.55
27	3217	3.61	36.55
27	3335	3.71	36.55
27	3453	3.81	36.55
27	3571	3.91	36.55
27	3697	4.01	36.55
27	3815	4.11	36.55
27	3933	4.21	36.55
27	4051	4.31	36.55
27	4169	4.41	36.55
27	4287	4.51	36.55
27	4405	4.61	36.55
27	4523	4.71	36.55
27	4641	4.81	36.55
27	4759	4.91	36.55
27	4894	5.01	36.55
27	5021	5.11	36.55
27	5148	5.21	36.55
27	5275	5.31	36.55
27	5402	5.41	36.55
27	5529	5.51	36.55
27	5656	5.61	36.55
27	5783	5.71	36.55
27	5910	5.81	36.55
27	6037	5.91	36.55
27	6172	6.01	36.55
27	6299	6.11	36.55
27	6426	6.21	36.55
27	6553	6.31	36.55
27	6680	6.41	36.55
27	6807	6.51	36.55
27	6934	6.61	36.55
27	7061	6.71	36.55
27	7188	6.81	36.55
27	7315	6.91	36.55
27	7450	7.01	36.55
27	7577	7.11	36.55
27	7704	7.21	36.55
27	7831	7.31	36.55
27	7958	7.41	36.55
27	8085	7.51	36.55
27	8212	7.61	36.55
27	8339	7.71	36.55
27	8466	7.81	36.55
27	8593	7.91	36.55
27	8728	8.01	36.55
27	8855	8.11	36.55
27	8982	8.21	36.55
27	9109	8.31	36.55
27	9236	8.41	36.55
27	9363	8.51	36.55
27	9490	8.61	36.55
27	9617	8.71	36.55
27	9744	8.81	36.55
27	9871	8.91	36.55
27	10006	9.01	36.55
27	10133	9.11	36.55
27	10260	9.21	36.55
27	10387	9.31	36.55
27	10514	9.41	36.55
27	10641	9.51	36.55
27	10768	9.61	36.55
27	10895	9.71	36.55
27	11022	9.81	36.55
27	11149	9.91	36.55
27	11284	10.01	36.55
27	11411	10.11	36.55
27	11538	10.21	36.55
27	11665	10.31	36.55
26	244	1.11	131.21764297485
26	363	1.21	133.9954208374
26	481	1.31	136.77319869995
26	600	1.41	139.5509765625
26	719	1.51	142.32875442505
26	837	1.61	145.1065322876
26	955	1.71	147.88431015015
26	1074	1.81	150.6620880127
26	1192	1.91	153.43986587524
26	1321	2.01	156.21764373779
26	1439	2.11	158.99542160034
26	1557	2.21	161.77319946289
26	1675	2.31	164.55097732544
26	1793	2.41	167.32875518799
26	1911	2.51	170.10653305054
26	2029	2.61	172.88431091309
26	2147	2.71	175.66208877564
26	2265	2.81	178.43986663818
26	2383	2.91	181.21764450073
26	2509	3.01	183.99542236328
26	2627	3.11	186.77320022583
26	2745	3.21	189.55097808838
26	2863	3.31	192.32875595093
26	2981	3.41	195.10653381348
26	3099	3.51	197.88431167603
26	3217	3.61	200.66208953858
26	3335	3.71	203.43986740112
26	3453	3.81	206.21764526367
26	3571	3.91	208.99542312622
26	3697	4.01	211.77320098877
26	3815	4.11	214.55097885132
26	3933	4.21	217.32875671387
26	4051	4.31	220.10653457642
26	4169	4.41	222.88431243897
26	4287	4.51	225.66209030152
26	4405	4.61	228.43986816406
26	4523	4.71	231.21764602661
26	4641	4.81	233.99542388916
26	4759	4.91	236.77320175171
26	4894	5.01	239.55097961426
26	5021	5.11	242.32875747681
26	5148	5.21	245.10653533936
26	5275	5.31	247.88431320191
26	5402	5.41	250.66209106446
26	5529	5.51	253.439868927
26	5656	5.61	256.21764678955
26	5783	5.71	258.9954246521
26	5910	5.81	261.77320251465
26	6037	5.91	264.5509803772
26	6172	6.01	267.32875823975
26	6299	6.11	270.1065361023
26	6426	6.21	272.88431396485
26	6553	6.31	275.66209182739
26	6680	6.41	278.43986968994
26	6807	6.51	281.21764755249
26	6934	6.61	283.99542541504
26	7061	6.71	286.77320327759
26	7188	6.81	289.55098114014
26	7315	6.91	292.32875900269
26	7450	7.01	295.10653686524
26	7577	7.11	297.88431472779
26	7704	7.21	300.66209259033
26	7831	7.31	303.43987045288
26	7958	7.41	306.21764831543
26	8085	7.51	308.99542617798
26	8212	7.61	311.77320404053
26	8339	7.71	314.55098190308
26	8466	7.81	317.32875976563
26	8593	7.91	320.10653762818
26	8728	8.01	322.88431549073
26	8855	8.11	325.66209335327
26	8982	8.21	328.43987121582
26	9109	8.31	331.21764907837
26	9236	8.41	333.99542694092
26	9363	8.51	336.77320480347
26	9490	8.61	339.55098266602
26	9617	8.71	342.32876052857
26	9744	8.81	345.10653839112
26	9871	8.91	347.88431625367
26	10006	9.01	350.66209411621
26	10133	9.11	353.43987197876
26	10260	9.21	356.21764984131
26	10387	9.31	358.99542770386
26	10514	9.41	361.77320556641
26	10641	9.51	364.55098342896
26	10768	9.61	367.32876129151
26	10895	9.71	370.10653915406
26	11022	9.81	372.88431701661
26	11149	9.91	375.66209487915
26	11284	10.01	378.4398727417
26	11411	10.11	381.21765060425
26	11538	10.21	383.9954284668
26	11665	10.31	386.77320632935
25	244	1.11	27.777778625488
25	363	1.21	27.777778625488
25	481	1.31	27.777778625488
25	600	1.41	27.777778625488
25	719	1.51	27.777778625488
25	837	1.61	27.777778625488
25	955	1.71	27.777778625488
25	1074	1.81	27.777778625488
25	1192	1.91	27.777778625488
25	1321	2.01	27.777778625488
25	1439	2.11	27.777778625488
25	1557	2.21	27.777778625488
25	1675	2.31	27.777778625488
25	1793	2.41	27.777778625488
25	1911	2.51	27.777778625488
25	2029	2.61	27.777778625488
25	2147	2.71	27.777778625488
25	2265	2.81	27.777778625488
25	2383	2.91	27.777778625488
25	2509	3.01	27.777778625488
25	2627	3.11	27.777778625488
25	2745	3.21	27.777778625488
25	2863	3.31	27.777778625488
25	2981	3.41	27.777778625488
25	3099	3.51	27.777778625488
25	3217	3.61	27.777778625488
25	3335	3.71	27.777778625488
25	3453	3.81	27.777778625488
25	3571	3.91	27.777778625488
25	3697	4.01	27.777778625488
25	3815	4.11	27.777778625488
25	3933	4.21	27.777778625488
25	4051	4.31	27.777778625488
25	4169	4.41	27.777778625488
25	4287	4.51	27.777778625488
25	4405	4.61	27.777778625488
25	4523	4.71	27.777778625488
25	4641	4.81	27.777778625488
25	4759	4.91	27.777778625488
25	4894	5.01	27.777778625488
25	5021	5.11	27.777778625488
25	5148	5.21	27.777778625488
25	5275	5.31	27.777778625488
25	5402	5.41	27.777778625488
25	5529	5.51	27.777778625488
25	5656	5.61	27.777778625488
25	5783	5.71	27.777778625488
25	5910	5.81	27.777778625488
25	6037	5.91	27.777778625488
25	6172	6.01	27.777778625488
25	6299	6.11	27.777778625488
25	6426	6.21	27.777778625488
25	6553	6.31	27.777778625488
25	6680	6.41	27.777778625488
25	6807	6.51	27.777778625488
25	6934	6.61	27.777778625488
25	7061	6.71	27.777778625488
25	7188	6.81	27.777778625488
25	7315	6.91	27.777778625488
25	7450	7.01	27.777778625488
25	7577	7.11	27.777778625488
25	7704	7.21	27.777778625488
25	7831	7.31	27.777778625488
25	7958	7.41	27.777778625488
25	8085	7.51	27.777778625488
25	8212	7.61	27.777778625488
25	8339	7.71	27.777778625488
25	8466	7.81	27.777778625488
25	8593	7.91	27.777778625488
25	8728	8.01	27.777778625488
25	8855	8.11	27.777778625488
25	8982	8.21	27.777778625488
25	9109	8.31	27.777778625488
25	9236	8.41	27.777778625488
25	9363	8.51	27.777778625488
25	9490	8.61	27.777778625488
25	9617	8.71	27.777778625488
25	9744	8.81	27.777778625488
25	9871	8.91	27.777778625488
25	10006	9.01	27.777778625488
25	10133	9.11	27.777778625488
25	10260	9.21	27.777778625488
25	10387	9.31	27.777778625488
25	10514	9.41	27.777778625488
25	10641	9.51	27.777778625488
25	10768	9.61	27.777778625488
25	10895	9.71	27.777778625488
25	11022	9.81	27.777778625488
25	11149	9.91	27.777778625488
25	11284	10.01	27.777778625488
25	11411	10.11	27.777778625488
25	11538	10.21	27.777778625488
25	11665	10.31	27.777778625488
23	244	1.11	-0.0092700445471472
23	363	1.21	-0.046001427268816
23	481	1.31	-0.10575315356394
23	600	1.41	-0.1833772851176
23	719	1.51	-0.27434105598062
23	837	1.61	-0.37468995522862
23	955	1.71	-0.48100838938611
23	1074	1.81	-0.590378934894
23	1192	1.91	-0.70034103900588
23	1321	2.01	-0.80884988865943
23	1439	2.11	-0.91423604094937
23	1557	2.21	-1.0151662955149
23	1675	2.31	-1.1106061880034
23	1793	2.41	-1.1997843942265
23	1911	2.51	-1.2821592560499
23	2029	2.61	-1.3573875717661
23	2147	2.71	-1.4252957349511
23	2265	2.81	-1.4858532558658
23	2383	2.91	-1.5391486575679
23	2509	3.01	-1.5853677043044
23	2627	3.11	-1.6247738917414
23	2745	3.21	-1.657691106432
23	2863	3.31	-1.6844883449813
23	2981	3.41	-1.7055663709742
23	3099	3.51	-1.7213461793212
23	3217	3.61	-1.7322591326729
23	3335	3.71	-1.7387386324591
23	3453	3.81	-1.7412131874538
23	3571	3.91	-1.7401007451256
23	3697	4.01	-1.7358041550264
23	3815	4.11	-1.7287076387618
23	3933	4.21	-1.7191741473633
23	4051	4.31	-1.7075434938904
23	4169	4.41	-1.6941311565924
23	4287	4.51	-1.6792276557607
23	4405	4.61	-1.6630984153298
23	4523	4.71	-1.6459840282004
23	4641	4.81	-1.6281008520429
23	4759	4.91	-1.6096418698957
23	4894	5.01	-1.5907777571297
23	5021	5.11	-1.5716581032454
23	5148	5.21	-1.5524075501316
23	5275	5.31	-1.5330771073345
23	5402	5.41	-1.5135770656905
23	5529	5.51	-1.4936397182387
23	5656	5.61	-1.4728103355735
23	5783	5.71	-1.4504661453202
23	5910	5.81	-1.4258740307446
23	6037	5.91	-1.3982620623843
23	6172	6.01	-1.366873785627
23	6299	6.11	-1.3310065153526
23	6426	6.21	-1.2900369478564
23	6553	6.31	-1.2434368298215
23	6680	6.41	-1.1907809336439
23	6807	6.51	-1.1317491787534
23	6934	6.61	-1.0661248488343
23	7061	6.71	-0.99380088194223
23	7188	6.81	-0.91481781778192
23	7315	6.91	-0.82940942363698
23	7450	7.01	-0.73803409897533
23	7577	7.11	-0.64139174515871
23	7704	7.21	-0.54042729890527
23	7831	7.31	-0.43632229866474
23	7958	7.41	-0.33074434187906
23	8085	7.51	-0.22929141743665
23	8212	7.61	-0.13924371851862
23	8339	7.71	-0.066411690463358
23	8466	7.81	-0.015197381316757
23	8593	7.91	0.011329089117179
23	8728	8.01	0.011340490158585
23	8855	8.11	-0.014444604065787
23	8982	8.21	-0.062545117293585
23	9109	8.31	-0.12895204656185
23	9236	8.41	-0.21037661310573
23	9363	8.51	-0.30412087285683
23	9490	8.61	-0.40797157198545
23	9617	8.71	-0.5201130714752
23	9744	8.81	-0.63905591494582
23	9871	8.91	-0.76357822938797
23	10006	9.01	-0.89267765335582
23	10133	9.11	-1.0255319013414
23	10260	9.21	-1.1609228375044
23	10387	9.31	-1.2945417718546
23	10514	9.41	-1.4209206430646
23	10641	9.51	-1.5350730292632
23	10768	9.61	-1.6325604605215
23	10895	9.71	-1.7095459346476
23	11022	9.81	-1.7662694452462
23	11149	9.91	-1.8066705581498
23	11284	10.01	-1.8342977816038
23	11411	10.11	-1.8519054727829
23	11538	10.21	-1.8615045249411
23	11665	10.31	-1.864434342886
22	244	1.11	13.999702583209
22	363	1.21	13.99696817583
22	481	1.31	13.989249412904
22	600	1.41	13.974532615716
22	719	1.51	13.951284773256
22	837	1.61	13.918394030878
22	955	1.71	13.87511401281
22	1074	1.81	13.821012163649
22	1192	1.91	13.755922201438
22	1321	2.01	13.679900696813
22	1439	2.11	13.593187727786
22	1557	2.21	13.496171506699
22	1675	2.31	13.389356833529
22	1793	2.41	13.273337196798
22	1911	2.51	13.148770318828
22	2029	2.61	13.016356924771
22	2147	2.71	12.876822503914
22	2265	2.81	12.730901826157
22	2383	2.91	12.579325975522
22	2509	3.01	12.422811665299
22	2627	3.11	12.262052605271
22	2745	3.21	12.09771269977
22	2863	3.31	11.930420865539
22	2981	3.41	11.760767270052
22	3099	3.51	11.589300803639
22	3217	3.61	11.416527612076
22	3335	3.71	11.242910529999
22	3453	3.81	11.068869269224
22	3571	3.91	10.894781229657
22	3697	4.01	10.720982813756
22	3815	4.11	10.54777113827
22	3933	4.21	10.375406049233
22	4051	4.31	10.204112357675
22	4169	4.41	10.034082224368
22	4287	4.51	9.8654776319356
22	4405	4.61	9.6984328919099
22	4523	4.71	9.5330571427951
22	4641	4.81	9.3694368028439
22	4759	4.91	9.2076379481814
22	4894	5.01	9.0477085930643
22	5021	5.11	8.8896808545315
22	5148	5.21	8.7335731249379
22	5275	5.31	8.5793947650692
22	5402	5.41	8.4271573367747
22	5529	5.51	8.2768909782974
22	5656	5.61	8.1286629207001
22	5783	5.71	7.9825954043524
22	5910	5.81	7.8388796386255
22	6037	5.91	7.6977828027811
22	6172	6.01	7.5596487943523
22	6299	6.11	7.4248944580665
22	6426	6.21	7.2940027077203
22	6553	6.31	7.1675136541702
22	6680	6.41	7.0460146063319
22	6807	6.51	6.9301296102905
22	6934	6.61	6.8205090165803
22	7061	6.71	6.7178189837922
22	7188	6.81	6.6227286706371
22	7315	6.91	6.5358928761209
22	7450	7.01	6.4579308652191
22	7577	7.11	6.3894028625581
22	7704	7.21	6.3307856032903
22	7831	7.31	6.2824482006801
22	7958	7.41	6.244619777236
22	8085	7.51	6.2171885121623
22	8212	7.61	6.1993292059873
22	8339	7.71	6.1895699122378
22	8466	7.81	6.1859356729664
22	8593	7.91	6.1860852658579
22	8728	8.01	6.1874395929113
22	8855	8.11	6.187358259885
22	8982	8.21	6.1834346363603
22	9109	8.31	6.1736642208559
22	9236	8.41	6.1564026239892
22	9363	8.51	6.1303008737262
22	9490	8.61	6.0942523431519
22	9617	8.71	6.0473492127582
22	9744	8.81	5.9888467543549
22	9871	8.91	5.9181340314374
22	10006	9.01	5.8347098632827
22	10133	9.11	5.7381631071369
22	10260	9.21	5.6281741869032
22	10387	9.31	5.5046970371767
22	10514	9.41	5.3682132358982
22	10641	9.51	5.2197252729223
22	10768	9.61	5.0607046332366
22	10895	9.71	4.8930339541735
22	11022	9.81	4.7188081317989
22	11149	9.91	4.5398403342742
22	11284	10.01	4.3575609273554
22	11411	10.11	4.1730894376104
22	11538	10.21	3.9873113437802
22	11665	10.31	3.8009486996713
24	244	1.11	1
24	363	1.21	1
24	481	1.31	1
24	600	1.41	1
24	719	1.51	1
24	837	1.61	1
24	955	1.71	1
24	1074	1.81	1
24	1192	1.91	1
24	1321	2.01	1
24	1439	2.11	1
24	1557	2.21	1
24	1675	2.31	1
24	1793	2.41	1
24	1911	2.51	1
24	2029	2.61	1
24	2147	2.71	1
24	2265	2.81	1
24	2383	2.91	1
24	2509	3.01	1
24	2627	3.11	1
24	2745	3.21	1
24	2863	3.31	1
24	2981	3.41	1
24	3099	3.51	1
24	3217	3.61	1
24	3335	3.71	1
24	3453	3.81	1
24	3571	3.91	1
24	3697	4.01	1
24	3815	4.11	1
24	3933	4.21	1
24	4051	4.31	1
24	4169	4.41	1
24	4287	4.51	1
24	4405	4.61	1
24	4523	4.71	1
24	4641	4.81	1
24	4759	4.91	1
24	4894	5.01	1
24	5021	5.11	1
24	5148	5.21	1
24	5275	5.31	1
24	5402	5.41	1
24	5529	5.51	1
24	5656	5.61	1
24	5783	5.71	1
24	5910	5.81	1
24	6037	5.91	1
24	6172	6.01	1
24	6299	6.11	1
24	6426	6.21	1
24	6553	6.31	1
24	6680	6.41	1
24	6807	6.51	1
24	6934	6.61	1
24	7061	6.71	1
24	7188	6.81	1
24	7315	6.91	1
24	7450	7.01	1
24	7577	7.11	1
24	7704	7.21	1
24	7831	7.31	1
24	7958	7.41	1
24	8085	7.51	1
24	8212	7.61	1
24	8339	7.71	1
24	8466	7.81	1
24	8593	7.91	1
24	8728	8.01	1
24	8855	8.11	1
24	8982	8.21	1
24	9109	8.31	1
24	9236	8.41	1
24	9363	8.51	1
24	9490	8.61	1
24	9617	8.71	1
24	9744	8.81	1
24	9871	8.91	1
24	10006	9.01	1
24	10133	9.11	1
24	10260	9.21	1
24	10387	9.31	1
24	10514	9.41	1
24	10641	9.51	1
24	10768	9.61	1
24	10895	9.71	1
24	11022	9.81	1
24	11149	9.91	1
24	11284	10.01	1
24	11411	10.11	1
24	11538	10.21	1
24	11665	10.31	1
32	1289	2	0
32	2479	3	0
32	3667	4	0
32	4864	5	0
32	6133	6	0
32	7411	7	0
32	8689	8	0
32	9967	9	0
32	11245	10	0
31	1289	2	0.004473
31	2479	3	0.00497
31	3667	4	0.00497
31	4864	5	0.00497
31	6133	6	0.00497
31	7411	7	0.00497
31	8689	8	0.00497
31	9967	9	0.00497
31	11245	10	0.00497
30	1289	2	1
30	2479	3	1
30	3667	4	1
30	4864	5	1
30	6133	6	1
30	7411	7	1
30	8689	8	1
30	9967	9	1
30	11245	10	1
51	245	1.11	0
51	364	1.21	0
51	482	1.31	0
51	601	1.41	0
51	720	1.51	0
51	838	1.61	0
51	956	1.71	0
51	1075	1.81	0
51	1193	1.91	0
51	1322	2.01	0
51	1440	2.11	0
51	1558	2.21	0
51	1676	2.31	0
51	1794	2.41	0
51	1912	2.51	0
51	2030	2.61	0
51	2148	2.71	0
51	2266	2.81	0
51	2384	2.91	0
51	2510	3.01	0
51	2628	3.11	0
51	2746	3.21	0
51	2864	3.31	0
51	2982	3.41	0
51	3100	3.51	0
51	3218	3.61	0
51	3336	3.71	0
51	3454	3.81	0
51	3572	3.91	0
51	3698	4.01	0
51	3816	4.11	0
51	3934	4.21	0
51	4052	4.31	0
51	4170	4.41	0
51	4288	4.51	0
51	4406	4.61	0
51	4524	4.71	0
51	4642	4.81	0
51	4760	4.91	0
51	4895	5.01	0
51	5022	5.11	0
51	5149	5.21	0
51	5276	5.31	0
51	5403	5.41	0
51	5530	5.51	0
51	5657	5.61	0
51	5784	5.71	0
51	5911	5.81	0
51	6038	5.91	0
51	6173	6.01	0
51	6300	6.11	0
51	6427	6.21	0
51	6554	6.31	0
51	6681	6.41	0
51	6808	6.51	0
51	6935	6.61	0
51	7062	6.71	0
51	7189	6.81	0
51	7316	6.91	0
51	7451	7.01	0
51	7578	7.11	0
51	7705	7.21	0
51	7832	7.31	0
51	7959	7.41	0
51	8086	7.51	0
51	8213	7.61	0
51	8340	7.71	0
51	8467	7.81	0
51	8594	7.91	0
51	8729	8.01	0
51	8856	8.11	0
51	8983	8.21	0
51	9110	8.31	0
51	9237	8.41	0
51	9364	8.51	0
51	9491	8.61	0
51	9618	8.71	0
51	9745	8.81	0
51	9872	8.91	0
51	10007	9.01	0
51	10134	9.11	0
51	10261	9.21	0
51	10388	9.31	0
51	10515	9.41	0
51	10642	9.51	0
51	10769	9.61	0
51	10896	9.71	0
51	11023	9.81	0
51	11150	9.91	0
51	11285	10.01	0
51	11412	10.11	0
51	11539	10.21	0
51	11666	10.31	0
50	245	1.11	0
50	364	1.21	0
50	482	1.31	0
50	601	1.41	0
50	720	1.51	0
50	838	1.61	0
50	956	1.71	0
50	1075	1.81	0
50	1193	1.91	0
50	1322	2.01	0
50	1440	2.11	0
50	1558	2.21	0
50	1676	2.31	0
50	1794	2.41	0
50	1912	2.51	0
50	2030	2.61	0
50	2148	2.71	0
50	2266	2.81	0
50	2384	2.91	0
50	2510	3.01	0
50	2628	3.11	0
50	2746	3.21	0
50	2864	3.31	0
50	2982	3.41	0
50	3100	3.51	0
50	3218	3.61	0
50	3336	3.71	0
50	3454	3.81	0
50	3572	3.91	0
50	3698	4.01	0
50	3816	4.11	0
50	3934	4.21	0
50	4052	4.31	0
50	4170	4.41	0
50	4288	4.51	0
50	4406	4.61	0
50	4524	4.71	0
50	4642	4.81	0
50	4760	4.91	0
50	4895	5.01	0
50	5022	5.11	0
50	5149	5.21	0
50	5276	5.31	0
50	5403	5.41	0
50	5530	5.51	0
50	5657	5.61	0
50	5784	5.71	0
50	5911	5.81	0
50	6038	5.91	0
50	6173	6.01	0
50	6300	6.11	0
50	6427	6.21	0
50	6554	6.31	0
50	6681	6.41	0
50	6808	6.51	0
50	6935	6.61	0
50	7062	6.71	0
50	7189	6.81	0
50	7316	6.91	0
50	7451	7.01	0
50	7578	7.11	0
50	7705	7.21	0
50	7832	7.31	0
50	7959	7.41	0
50	8086	7.51	0
50	8213	7.61	0
50	8340	7.71	0
50	8467	7.81	0
50	8594	7.91	0
50	8729	8.01	0
50	8856	8.11	0
50	8983	8.21	0
50	9110	8.31	0
50	9237	8.41	0
50	9364	8.51	0
50	9491	8.61	0
50	9618	8.71	0
50	9745	8.81	0
50	9872	8.91	0
50	10007	9.01	0
50	10134	9.11	0
50	10261	9.21	0
50	10388	9.31	0
50	10515	9.41	0
50	10642	9.51	0
50	10769	9.61	0
50	10896	9.71	0
50	11023	9.81	0
50	11150	9.91	0
50	11285	10.01	0
50	11412	10.11	0
50	11539	10.21	0
50	11666	10.31	0
49	245	1.11	36.55
49	364	1.21	36.55
49	482	1.31	36.55
49	601	1.41	36.55
49	720	1.51	36.55
49	838	1.61	36.55
49	956	1.71	36.55
49	1075	1.81	36.55
49	1193	1.91	36.55
49	1322	2.01	36.55
49	1440	2.11	36.55
49	1558	2.21	36.55
49	1676	2.31	36.55
49	1794	2.41	36.55
49	1912	2.51	36.55
49	2030	2.61	36.55
49	2148	2.71	36.55
49	2266	2.81	36.55
49	2384	2.91	36.55
49	2510	3.01	36.55
49	2628	3.11	36.55
49	2746	3.21	36.55
49	2864	3.31	36.55
49	2982	3.41	36.55
49	3100	3.51	36.55
49	3218	3.61	36.55
49	3336	3.71	36.55
49	3454	3.81	36.55
49	3572	3.91	36.55
49	3698	4.01	36.55
49	3816	4.11	36.55
49	3934	4.21	36.55
49	4052	4.31	36.55
49	4170	4.41	36.55
49	4288	4.51	36.55
49	4406	4.61	36.55
49	4524	4.71	36.55
49	4642	4.81	36.55
49	4760	4.91	36.55
49	4895	5.01	36.55
49	5022	5.11	36.55
49	5149	5.21	36.55
49	5276	5.31	36.55
49	5403	5.41	36.55
49	5530	5.51	36.55
49	5657	5.61	36.55
49	5784	5.71	36.55
49	5911	5.81	36.55
49	6038	5.91	36.55
49	6173	6.01	36.55
49	6300	6.11	36.55
49	6427	6.21	36.55
49	6554	6.31	36.55
49	6681	6.41	36.55
49	6808	6.51	36.55
49	6935	6.61	36.55
49	7062	6.71	36.55
49	7189	6.81	36.55
49	7316	6.91	36.55
49	7451	7.01	36.55
49	7578	7.11	36.55
49	7705	7.21	36.55
49	7832	7.31	36.55
49	7959	7.41	36.55
49	8086	7.51	36.55
49	8213	7.61	36.55
49	8340	7.71	36.55
49	8467	7.81	36.55
49	8594	7.91	36.55
49	8729	8.01	36.55
49	8856	8.11	36.55
49	8983	8.21	36.55
49	9110	8.31	36.55
49	9237	8.41	36.55
49	9364	8.51	36.55
49	9491	8.61	36.55
49	9618	8.71	36.55
49	9745	8.81	36.55
49	9872	8.91	36.55
49	10007	9.01	36.55
49	10134	9.11	36.55
49	10261	9.21	36.55
49	10388	9.31	36.55
49	10515	9.41	36.55
49	10642	9.51	36.55
49	10769	9.61	36.55
49	10896	9.71	36.55
49	11023	9.81	36.55
49	11150	9.91	36.55
49	11285	10.01	36.55
49	11412	10.11	36.55
49	11539	10.21	36.55
49	11666	10.31	36.55
48	245	1.11	55.217641067505
48	364	1.21	57.995418930054
48	482	1.31	60.773196792603
48	601	1.41	63.550974655151
48	720	1.51	66.3287525177
48	838	1.61	69.106530380249
48	956	1.71	71.884308242798
48	1075	1.81	74.662086105347
48	1193	1.91	77.439863967895
48	1322	2.01	80.217641830444
48	1440	2.11	82.995419692993
48	1558	2.21	85.773197555542
48	1676	2.31	88.550975418091
48	1794	2.41	91.328753280639
48	1912	2.51	94.106531143188
48	2030	2.61	96.884309005737
48	2148	2.71	99.662086868286
48	2266	2.81	102.43986473083
48	2384	2.91	105.21764259338
48	2510	3.01	107.99542045593
48	2628	3.11	110.77319831848
48	2746	3.21	113.55097618103
48	2864	3.31	116.32875404358
48	2982	3.41	119.10653190613
48	3100	3.51	121.88430976868
48	3218	3.61	124.66208763123
48	3336	3.71	127.43986549377
48	3454	3.81	130.21764335632
48	3572	3.91	132.99542121887
48	3698	4.01	135.77319908142
48	3816	4.11	138.55097694397
48	3934	4.21	141.32875480652
48	4052	4.31	144.10653266907
48	4170	4.41	146.88431053162
48	4288	4.51	149.66208839417
48	4406	4.61	152.43986625671
48	4524	4.71	155.21764411926
48	4642	4.81	157.99542198181
48	4760	4.91	160.77319984436
48	4895	5.01	163.55097770691
48	5022	5.11	166.32875556946
48	5149	5.21	169.10653343201
48	5276	5.31	171.88431129456
48	5403	5.41	174.66208915711
48	5530	5.51	177.43986701965
48	5657	5.61	180.2176448822
48	5784	5.71	182.99542274475
48	5911	5.81	185.7732006073
48	6038	5.91	188.55097846985
48	6173	6.01	191.3287563324
48	6300	6.11	194.10653419495
48	6427	6.21	196.8843120575
48	6554	6.31	199.66208992005
48	6681	6.41	202.43986778259
48	6808	6.51	205.21764564514
48	6935	6.61	207.99542350769
48	7062	6.71	210.77320137024
48	7189	6.81	213.55097923279
48	7316	6.91	216.32875709534
48	7451	7.01	219.10653495789
48	7578	7.11	221.88431282044
48	7705	7.21	224.66209068299
48	7832	7.31	227.43986854553
48	7959	7.41	230.21764640808
48	8086	7.51	232.99542427063
48	8213	7.61	235.77320213318
48	8340	7.71	238.55097999573
48	8467	7.81	241.32875785828
48	8594	7.91	244.10653572083
48	8729	8.01	246.88431358338
48	8856	8.11	249.66209144593
48	8983	8.21	252.43986930847
48	9110	8.31	255.21764717102
48	9237	8.41	257.99542503357
48	9364	8.51	260.77320289612
48	9491	8.61	263.55098075867
48	9618	8.71	266.32875862122
48	9745	8.81	269.10653648377
48	9872	8.91	271.88431434632
48	10007	9.01	274.66209220887
48	10134	9.11	277.43987007141
48	10261	9.21	280.21764793396
48	10388	9.31	282.99542579651
48	10515	9.41	285.77320365906
48	10642	9.51	288.55098152161
48	10769	9.61	291.32875938416
48	10896	9.71	294.10653724671
48	11023	9.81	296.88431510926
48	11150	9.91	299.6620929718
48	11285	10.01	302.43987083435
48	11412	10.11	305.2176486969
48	11539	10.21	307.99542655945
48	11666	10.31	310.773204422
47	245	1.11	27.777778625488
47	364	1.21	27.777778625488
47	482	1.31	27.777778625488
47	601	1.41	27.777778625488
47	720	1.51	27.777778625488
47	838	1.61	27.777778625488
47	956	1.71	27.777778625488
47	1075	1.81	27.777778625488
47	1193	1.91	27.777778625488
47	1322	2.01	27.777778625488
47	1440	2.11	27.777778625488
47	1558	2.21	27.777778625488
47	1676	2.31	27.777778625488
47	1794	2.41	27.777778625488
47	1912	2.51	27.777778625488
47	2030	2.61	27.777778625488
47	2148	2.71	27.777778625488
47	2266	2.81	27.777778625488
47	2384	2.91	27.777778625488
47	2510	3.01	27.777778625488
47	2628	3.11	27.777778625488
47	2746	3.21	27.777778625488
47	2864	3.31	27.777778625488
47	2982	3.41	27.777778625488
47	3100	3.51	27.777778625488
47	3218	3.61	27.777778625488
47	3336	3.71	27.777778625488
47	3454	3.81	27.777778625488
47	3572	3.91	27.777778625488
47	3698	4.01	27.777778625488
47	3816	4.11	27.777778625488
47	3934	4.21	27.777778625488
47	4052	4.31	27.777778625488
47	4170	4.41	27.777778625488
47	4288	4.51	27.777778625488
47	4406	4.61	27.777778625488
47	4524	4.71	27.777778625488
47	4642	4.81	27.777778625488
47	4760	4.91	27.777778625488
47	4895	5.01	27.777778625488
47	5022	5.11	27.777778625488
47	5149	5.21	27.777778625488
47	5276	5.31	27.777778625488
47	5403	5.41	27.777778625488
47	5530	5.51	27.777778625488
47	5657	5.61	27.777778625488
47	5784	5.71	27.777778625488
47	5911	5.81	27.777778625488
47	6038	5.91	27.777778625488
47	6173	6.01	27.777778625488
47	6300	6.11	27.777778625488
47	6427	6.21	27.777778625488
47	6554	6.31	27.777778625488
47	6681	6.41	27.777778625488
47	6808	6.51	27.777778625488
47	6935	6.61	27.777778625488
47	7062	6.71	27.777778625488
47	7189	6.81	27.777778625488
47	7316	6.91	27.777778625488
47	7451	7.01	27.777778625488
47	7578	7.11	27.777778625488
47	7705	7.21	27.777778625488
47	7832	7.31	27.777778625488
47	7959	7.41	27.777778625488
47	8086	7.51	27.777778625488
47	8213	7.61	27.777778625488
47	8340	7.71	27.777778625488
47	8467	7.81	27.777778625488
47	8594	7.91	27.777778625488
47	8729	8.01	27.777778625488
47	8856	8.11	27.777778625488
47	8983	8.21	27.777778625488
47	9110	8.31	27.777778625488
47	9237	8.41	27.777778625488
47	9364	8.51	27.777778625488
47	9491	8.61	27.777778625488
47	9618	8.71	27.777778625488
47	9745	8.81	27.777778625488
47	9872	8.91	27.777778625488
47	10007	9.01	27.777778625488
47	10134	9.11	27.777778625488
47	10261	9.21	27.777778625488
47	10388	9.31	27.777778625488
47	10515	9.41	27.777778625488
47	10642	9.51	27.777778625488
47	10769	9.61	27.777778625488
47	10896	9.71	27.777778625488
47	11023	9.81	27.777778625488
47	11150	9.91	27.777778625488
47	11285	10.01	27.777778625488
47	11412	10.11	27.777778625488
47	11539	10.21	27.777778625488
47	11666	10.31	27.777778625488
45	245	1.11	0
45	364	1.21	0
45	482	1.31	0
45	601	1.41	0
45	720	1.51	0
45	838	1.61	0
45	956	1.71	0
45	1075	1.81	0
45	1193	1.91	0
45	1322	2.01	0
45	1440	2.11	0
45	1558	2.21	0
45	1676	2.31	0
45	1794	2.41	0
45	1912	2.51	0
45	2030	2.61	0
45	2148	2.71	0
45	2266	2.81	0
45	2384	2.91	0
45	2510	3.01	0
45	2628	3.11	0
45	2746	3.21	0
45	2864	3.31	0
45	2982	3.41	0
45	3100	3.51	0
45	3218	3.61	0
45	3336	3.71	0
45	3454	3.81	0
45	3572	3.91	0
45	3698	4.01	0
45	3816	4.11	0
45	3934	4.21	0
45	4052	4.31	0
45	4170	4.41	0
45	4288	4.51	0
45	4406	4.61	0
45	4524	4.71	0
45	4642	4.81	0
45	4760	4.91	0
45	4895	5.01	0
45	5022	5.11	0
45	5149	5.21	0
45	5276	5.31	0
45	5403	5.41	0
45	5530	5.51	0
45	5657	5.61	0
45	5784	5.71	0
45	5911	5.81	0
45	6038	5.91	0
45	6173	6.01	0
45	6300	6.11	0
45	6427	6.21	0
45	6554	6.31	0
45	6681	6.41	0
45	6808	6.51	0
45	6935	6.61	0
45	7062	6.71	0
45	7189	6.81	0
45	7316	6.91	0
45	7451	7.01	0
45	7578	7.11	0
45	7705	7.21	0
45	7832	7.31	0
45	7959	7.41	0
45	8086	7.51	0
45	8213	7.61	0
45	8340	7.71	0
45	8467	7.81	0
45	8594	7.91	0
45	8729	8.01	0
45	8856	8.11	0
45	8983	8.21	0
45	9110	8.31	0
45	9237	8.41	0
45	9364	8.51	0
45	9491	8.61	0
45	9618	8.71	0
45	9745	8.81	0
45	9872	8.91	0
45	10007	9.01	0
45	10134	9.11	0
45	10261	9.21	0
45	10388	9.31	0
45	10515	9.41	0
45	10642	9.51	0
45	10769	9.61	0
45	10896	9.71	0
45	11023	9.81	0
45	11150	9.91	0
45	11285	10.01	0
45	11412	10.11	0
45	11539	10.21	0
45	11666	10.31	0
44	245	1.11	14.000001907349
44	364	1.21	14.000001907349
44	482	1.31	14.000001907349
44	601	1.41	14.000001907349
44	720	1.51	14.000001907349
44	838	1.61	14.000001907349
44	956	1.71	14.000001907349
44	1075	1.81	14.000001907349
44	1193	1.91	14.000001907349
44	1322	2.01	14.000001907349
44	1440	2.11	14.000001907349
44	1558	2.21	14.000001907349
44	1676	2.31	14.000001907349
44	1794	2.41	14.000001907349
44	1912	2.51	14.000001907349
44	2030	2.61	14.000001907349
44	2148	2.71	14.000001907349
44	2266	2.81	14.000001907349
44	2384	2.91	14.000001907349
44	2510	3.01	14.000001907349
44	2628	3.11	14.000001907349
44	2746	3.21	14.000001907349
44	2864	3.31	14.000001907349
44	2982	3.41	14.000001907349
44	3100	3.51	14.000001907349
44	3218	3.61	14.000001907349
44	3336	3.71	14.000001907349
44	3454	3.81	14.000001907349
44	3572	3.91	14.000001907349
44	3698	4.01	14.000001907349
44	3816	4.11	14.000001907349
44	3934	4.21	14.000001907349
44	4052	4.31	14.000001907349
44	4170	4.41	14.000001907349
44	4288	4.51	14.000001907349
44	4406	4.61	14.000001907349
44	4524	4.71	14.000001907349
44	4642	4.81	14.000001907349
44	4760	4.91	14.000001907349
44	4895	5.01	14.000001907349
44	5022	5.11	14.000001907349
44	5149	5.21	14.000001907349
44	5276	5.31	14.000001907349
44	5403	5.41	14.000001907349
44	5530	5.51	14.000001907349
44	5657	5.61	14.000001907349
44	5784	5.71	14.000001907349
44	5911	5.81	14.000001907349
44	6038	5.91	14.000001907349
44	6173	6.01	14.000001907349
44	6300	6.11	14.000001907349
44	6427	6.21	14.000001907349
44	6554	6.31	14.000001907349
44	6681	6.41	14.000001907349
44	6808	6.51	14.000001907349
44	6935	6.61	14.000001907349
44	7062	6.71	14.000001907349
44	7189	6.81	14.000001907349
44	7316	6.91	14.000001907349
44	7451	7.01	14.000001907349
44	7578	7.11	14.000001907349
44	7705	7.21	14.000001907349
44	7832	7.31	14.000001907349
44	7959	7.41	14.000001907349
44	8086	7.51	14.000001907349
44	8213	7.61	14.000001907349
44	8340	7.71	14.000001907349
44	8467	7.81	14.000001907349
44	8594	7.91	14.000001907349
44	8729	8.01	14.000001907349
44	8856	8.11	14.000001907349
44	8983	8.21	14.000001907349
44	9110	8.31	14.000001907349
44	9237	8.41	14.000001907349
44	9364	8.51	14.000001907349
44	9491	8.61	14.000001907349
44	9618	8.71	14.000001907349
44	9745	8.81	14.000001907349
44	9872	8.91	14.000001907349
44	10007	9.01	14.000001907349
44	10134	9.11	14.000001907349
44	10261	9.21	14.000001907349
44	10388	9.31	14.000001907349
44	10515	9.41	14.000001907349
44	10642	9.51	14.000001907349
44	10769	9.61	14.000001907349
44	10896	9.71	14.000001907349
44	11023	9.81	14.000001907349
44	11150	9.91	14.000001907349
44	11285	10.01	14.000001907349
44	11412	10.11	14.000001907349
44	11539	10.21	14.000001907349
44	11666	10.31	14.000001907349
46	245	1.11	2
46	364	1.21	2
46	482	1.31	2
46	601	1.41	2
46	720	1.51	2
46	838	1.61	2
46	956	1.71	2
46	1075	1.81	2
46	1193	1.91	2
46	1322	2.01	2
46	1440	2.11	2
46	1558	2.21	2
46	1676	2.31	2
46	1794	2.41	2
46	1912	2.51	2
46	2030	2.61	2
46	2148	2.71	2
46	2266	2.81	2
46	2384	2.91	2
46	2510	3.01	2
46	2628	3.11	2
46	2746	3.21	2
46	2864	3.31	2
46	2982	3.41	2
46	3100	3.51	2
46	3218	3.61	2
46	3336	3.71	2
46	3454	3.81	2
46	3572	3.91	2
46	3698	4.01	2
46	3816	4.11	2
46	3934	4.21	2
46	4052	4.31	2
46	4170	4.41	2
46	4288	4.51	2
46	4406	4.61	2
46	4524	4.71	2
46	4642	4.81	2
46	4760	4.91	2
46	4895	5.01	2
46	5022	5.11	2
46	5149	5.21	2
46	5276	5.31	2
46	5403	5.41	2
46	5530	5.51	2
46	5657	5.61	2
46	5784	5.71	2
46	5911	5.81	2
46	6038	5.91	2
46	6173	6.01	2
46	6300	6.11	2
46	6427	6.21	2
46	6554	6.31	2
46	6681	6.41	2
46	6808	6.51	2
46	6935	6.61	2
46	7062	6.71	2
46	7189	6.81	2
46	7316	6.91	2
46	7451	7.01	2
46	7578	7.11	2
46	7705	7.21	2
46	7832	7.31	2
46	7959	7.41	2
46	8086	7.51	2
46	8213	7.61	2
46	8340	7.71	2
46	8467	7.81	2
46	8594	7.91	2
46	8729	8.01	2
46	8856	8.11	2
46	8983	8.21	2
46	9110	8.31	2
46	9237	8.41	2
46	9364	8.51	2
46	9491	8.61	2
46	9618	8.71	2
46	9745	8.81	2
46	9872	8.91	2
46	10007	9.01	2
46	10134	9.11	2
46	10261	9.21	2
46	10388	9.31	2
46	10515	9.41	2
46	10642	9.51	2
46	10769	9.61	2
46	10896	9.71	2
46	11023	9.81	2
46	11150	9.91	2
46	11285	10.01	2
46	11412	10.11	2
46	11539	10.21	2
46	11666	10.31	2
54	1290	2	0
54	2480	3	0
54	3668	4	0
54	4865	5	0
54	6134	6	0
54	7412	7	0
54	8690	8	0
54	9968	9	0
54	11246	10	0
53	1290	2	0.004473
53	2480	3	0.00497
53	3668	4	0.00497
53	4865	5	0.00497
53	6134	6	0.00497
53	7412	7	0.00497
53	8690	8	0.00497
53	9968	9	0.00497
53	11246	10	0.00497
52	1290	2	2
52	2480	3	2
52	3668	4	2
52	4865	5	2
52	6134	6	2
52	7412	7	2
52	8690	8	2
52	9968	9	2
52	11246	10	2
73	246	1.11	-1.6857677029093
73	365	1.21	-1.6512572118417
73	483	1.31	-1.5948457041372
73	602	1.41	-1.5211701160241
73	721	1.51	-1.4343332785548
73	839	1.61	-1.3379334144653
73	957	1.71	-1.2350962134196
73	1076	1.81	-1.1285085581389
73	1194	1.91	-1.0204531079721
73	1323	2.01	-0.91284306953465
73	1441	2.11	-0.80725659616162
73	1559	2.21	-0.70497035925985
73	1677	2.31	-0.60699192552098
73	1795	2.41	-0.5140906547922
73	1913	2.51	-0.42682690469109
73	2031	2.61	-0.345579390354
73	2149	2.71	-0.27057060162185
73	2267	2.81	-0.20189022611493
73	2385	2.91	-0.13951656566489
73	2511	3.01	-0.083335966085723
73	2629	3.11	-0.033160306904396
73	2747	3.21	0.011257380964728
73	2865	3.31	0.050209084944367
73	2983	3.41	0.084019670728364
73	3101	3.51	0.11303632632274
73	3219	3.61	0.13761947831273
73	3337	3.71	0.15813506537932
73	3455	3.81	0.17494805326462
73	3573	3.91	0.18841707645489
73	3699	4.01	0.19889009447216
73	3817	4.11	0.20670095453465
73	3935	4.21	0.21216675718937
73	4053	4.31	0.21558592709918
73	4171	4.41	0.21723689726704
73	4289	4.51	0.21737732142425
73	4407	4.61	0.2162437359386
73	4525	4.71	0.21405159927998
73	4643	4.81	0.21099564370771
73	4761	4.91	0.20725048032122
73	4896	5.01	0.20297140487416
73	5023	5.11	0.19829535773316
73	5150	5.21	0.19334199702324
73	5277	5.31	0.18821484931225
73	5404	5.41	0.18300250712536
73	5531	5.51	0.17777984713805
73	5658	5.61	0.17260924706671
73	5785	5.71	0.16754178306539
73	5912	5.81	0.16261839285031
73	6039	5.91	0.15787099282804
73	6174	6.01	0.15332354020786
73	6301	6.11	0.14899303345948
73	6428	6.21	0.14489044654741
73	6555	6.31	0.14102159415965
73	6682	6.41	0.13738792666918
73	6809	6.51	0.13398725484668
73	6936	6.61	0.13081440540276
73	7063	6.71	0.1278618092998
73	7190	6.81	0.12512002545802
73	7317	6.91	0.1225782030085
73	7452	7.01	0.12022448563488
73	7579	7.11	0.11804636181474
73	7706	7.21	0.11603096493661
73	7833	7.31	0.11416532734559
73	7960	7.41	0.11243659237292
73	8087	7.51	0.11083218834494
73	8214	7.61	0.10933996845737
73	8341	7.71	0.10794832025092
73	8468	7.81	0.10664624824419
73	8595	7.91	-0.19939779171324
73	8730	8.01	-0.50214993348597
73	8857	8.11	-0.77096095153277
73	8984	8.21	-0.99804199101115
73	9111	8.31	-1.1774303750486
73	9238	8.41	-1.3049165074929
73	9365	8.51	-1.3779552014207
73	9492	8.61	-1.3955634440126
73	9619	8.71	-1.3582064848104
73	9746	8.81	-1.2676740367214
73	9873	8.91	-1.1269483040178
73	10008	9.01	-0.94006549520918
73	10135	9.11	-0.71197243702318
73	10262	9.21	-0.44837987472416
73	10389	9.31	-0.15561401956953
73	10516	9.41	0.15953211756526
73	10643	9.51	0.48994609013529
73	10770	9.61	0.82834058832414
73	10897	9.71	1.1673937652259
73	11024	9.81	1.3416757158689
73	11151	9.91	1.3391460996788
73	11286	10.01	1.3176310461076
73	11413	10.11	1.2807031687411
73	11540	10.21	1.2315558166228
73	11667	10.31	1.1730197804939
72	246	1.11	-0.24772452059949
72	365	1.21	-0.50291778707319
72	483	1.31	-0.70376502035963
72	602	1.41	-0.85657482421233
72	721	1.51	-0.96730073474092
72	839	1.61	-1.0415120118477
72	957	1.71	-1.0843752541479
72	1076	1.81	-1.1006452597236
72	1194	1.91	-1.0946636856499
72	1323	2.01	-1.07036418934
72	1441	2.11	-1.031282862494
72	1559	2.21	-0.98057289224016
72	1677	2.31	-0.92102250277577
72	1795	2.41	-0.8550753435113
72	1913	2.51	-0.78485259567707
72	2031	2.61	-0.71217616820789
72	2149	2.71	-0.63859244510454
72	2267	2.81	-0.56539613035014
72	2385	2.91	-0.49365381280246
72	2511	3.01	-0.42422694249389
72	2629	3.11	-0.35779397154165
72	2747	3.21	-0.29487146787837
72	2865	3.31	-0.23583405839993
72	2983	3.41	-0.18093310047007
72	3101	3.51	-0.1303140172574
72	3219	3.61	-0.084032263694667
72	3337	3.71	-0.042067916244548
72	3455	3.81	-0.0043389016635587
72	3573	3.91	0.029287102055164
72	3699	4.01	0.058982044982514
72	3817	4.11	0.084948105993021
72	3935	4.21	0.10740944774632
72	4053	4.31	0.1266050527672
72	4171	4.41	0.14278256365827
72	4289	4.51	0.15619304848613
72	4407	4.61	0.16708661191878
72	4525	4.71	0.17570877351041
72	4643	4.81	0.18229753639609
72	4761	4.91	0.18708107238083
72	4896	5.01	0.19027595275141
72	5023	5.11	0.19208585802168
72	5150	5.21	0.1927007040031
72	5277	5.31	0.19229612604867
72	5404	5.41	0.19103326785519
72	5531	5.51	0.18905882579823
72	5658	5.61	0.18650530431081
72	5785	5.71	0.18349144226271
72	5912	5.81	0.18012277455632
72	6039	5.91	0.1764922972594
72	6174	6.01	0.17268120845841
72	6301	6.11	0.16875970063381
72	6428	6.21	0.16478778373035
72	6555	6.31	0.16081612121361
72	6682	6.41	0.15688686421775
72	6809	6.51	0.15303447150607
72	6936	6.61	0.14928650525086
72	7063	6.71	0.14566439475381
72	7190	6.81	0.14218416203455
72	7317	6.91	0.13885710484765
72	7452	7.01	0.13569043409269
72	7579	7.11	0.13268786379506
72	7706	7.21	0.12985015285487
72	7833	7.31	0.12717559864157
72	7960	7.41	0.1246604832172
72	8087	7.51	0.12229947355955
72	8214	7.61	0.12008597762225
72	8341	7.71	0.11801245840424
72	8468	7.81	0.1160707084825
72	8595	7.91	0.1082752008756
72	8730	8.01	0.046306723950096
72	8857	8.11	-0.057643578622546
72	8984	8.21	-0.18947102055087
72	9111	8.31	-0.33635438833066
72	9238	8.41	-0.48684125031002
72	9365	8.51	-0.63090386960063
72	9492	8.61	-0.75996847864133
72	9619	8.71	-0.86692051427271
72	9746	8.81	-0.94608826135776
72	9873	8.91	-0.9932072133978
72	10008	9.01	-1.0053673320328
72	10135	9.11	-0.98094527470174
72	10262	9.21	-0.91952356095284
72	10389	9.31	-0.82179856221565
72	10516	9.41	-0.68947912586417
72	10643	9.51	-0.52517758042043
72	10770	9.61	-0.3322948125291
72	10897	9.71	-0.1149010557004
72	11024	9.81	0.11928389535178
72	11151	9.91	0.33893754459093
72	11286	10.01	0.51668876246787
72	11413	10.11	0.65702377801564
72	11540	10.21	0.76422587860741
72	11667	10.31	0.84234538863086
71	246	1.11	36.55
71	365	1.21	36.55
71	483	1.31	36.55
71	602	1.41	36.55
71	721	1.51	36.55
71	839	1.61	36.55
71	957	1.71	36.55
71	1076	1.81	36.55
71	1194	1.91	36.55
71	1323	2.01	36.55
71	1441	2.11	36.55
71	1559	2.21	36.55
71	1677	2.31	36.55
71	1795	2.41	36.55
71	1913	2.51	36.55
71	2031	2.61	36.55
71	2149	2.71	36.55
71	2267	2.81	36.55
71	2385	2.91	36.55
71	2511	3.01	36.55
71	2629	3.11	36.55
71	2747	3.21	36.55
71	2865	3.31	36.55
71	2983	3.41	36.55
71	3101	3.51	36.55
71	3219	3.61	36.55
71	3337	3.71	36.55
71	3455	3.81	36.55
71	3573	3.91	36.55
71	3699	4.01	36.55
71	3817	4.11	36.55
71	3935	4.21	36.55
71	4053	4.31	36.55
71	4171	4.41	36.55
71	4289	4.51	36.55
71	4407	4.61	36.55
71	4525	4.71	36.55
71	4643	4.81	36.55
71	4761	4.91	36.55
71	4896	5.01	36.55
71	5023	5.11	36.55
71	5150	5.21	36.55
71	5277	5.31	36.55
71	5404	5.41	36.55
71	5531	5.51	36.55
71	5658	5.61	36.55
71	5785	5.71	36.55
71	5912	5.81	36.55
71	6039	5.91	36.55
71	6174	6.01	36.55
71	6301	6.11	36.55
71	6428	6.21	36.55
71	6555	6.31	36.55
71	6682	6.41	36.55
71	6809	6.51	36.55
71	6936	6.61	36.55
71	7063	6.71	36.55
71	7190	6.81	36.55
71	7317	6.91	36.55
71	7452	7.01	36.55
71	7579	7.11	36.55
71	7706	7.21	36.55
71	7833	7.31	36.55
71	7960	7.41	36.55
71	8087	7.51	36.55
71	8214	7.61	36.55
71	8341	7.71	36.55
71	8468	7.81	36.55
71	8595	7.91	36.55
71	8730	8.01	36.55
71	8857	8.11	36.55
71	8984	8.21	36.55
71	9111	8.31	36.55
71	9238	8.41	36.55
71	9365	8.51	36.55
71	9492	8.61	36.55
71	9619	8.71	36.55
71	9746	8.81	36.55
71	9873	8.91	36.55
71	10008	9.01	36.55
71	10135	9.11	36.55
71	10262	9.21	36.55
71	10389	9.31	36.55
71	10516	9.41	36.55
71	10643	9.51	36.55
71	10770	9.61	36.55
71	10897	9.71	36.55
71	11024	9.81	36.55
71	11151	9.91	36.55
71	11286	10.01	36.55
71	11413	10.11	36.55
71	11540	10.21	36.55
71	11667	10.31	36.55
70	246	1.11	112.21711061227
70	365	1.21	114.99136840114
70	483	1.31	117.76019229682
70	602	1.41	120.52167031773
70	721	1.51	123.27435891755
70	839	1.61	126.01722421817
70	957	1.71	128.74958712255
70	1076	1.81	131.47107247303
70	1194	1.91	134.18156233064
70	1323	2.01	136.88115337582
70	1441	2.11	139.57011836853
70	1559	2.21	142.24887155476
70	1677	2.31	144.91793786644
70	1795	2.41	147.57792573012
70	1913	2.51	150.22950327731
70	2031	2.61	152.87337773305
70	2149	2.71	155.5102777497
70	2267	2.81	158.14093844818
70	2385	2.91	160.76608892888
70	2511	3.01	163.38644201761
70	2629	3.11	166.00268601864
70	2747	3.21	168.61547825527
70	2865	3.31	171.22544018939
70	2983	3.41	173.83315392291
70	3101	3.51	176.43915989709
70	3219	3.61	179.04395561929
70	3337	3.71	181.64799525997
70	3455	3.81	184.25168997705
70	3573	3.91	186.8554088378
70	3699	4.01	189.45948022191
70	3817	4.11	192.06419360193
70	3935	4.21	194.66980160952
70	4053	4.31	197.27652230706
70	4171	4.41	199.88454159508
70	4289	4.51	202.49401569581
70	4407	4.61	205.10507366213
70	4525	4.71	207.71781986959
70	4643	4.81	210.33233645671
70	4761	4.91	212.9486856854
70	4896	5.01	215.56691219957
70	5023	5.11	218.18704516502
70	5150	5.21	220.80910027881
70	5277	5.31	223.43308163976
70	5404	5.41	226.05898347583
70	5531	5.51	228.68679172664
70	5658	5.61	231.31648548195
70	5785	5.71	233.94803827918
70	5912	5.81	236.58141926426
70	6039	5.91	239.21659422192
70	6174	6.01	241.85352648191
70	6301	6.11	244.49217770897
70	6428	6.21	247.13250858425
70	6555	6.31	249.77447938676
70	6682	6.41	252.4180504828
70	6809	6.51	255.06318273214
70	6936	6.61	257.70983781865
70	7063	6.71	260.35797851372
70	7190	6.81	263.00756887959
70	7317	6.91	265.65857442015
70	7452	7.01	268.31096218564
70	7579	7.11	270.96470083779
70	7706	7.21	273.61976068099
70	7833	7.31	276.27611366491
70	7960	7.41	278.93373336346
70	8087	7.51	281.59259493431
70	8214	7.61	284.25267506306
70	8341	7.71	286.91395189538
70	8468	7.81	289.57640496031
70	8595	7.91	292.24001389193
70	8730	8.01	294.90456183207
70	8857	8.11	297.56934443419
70	8984	8.21	300.23326742914
70	9111	8.31	302.89498383692
70	9238	8.41	305.55301940882
70	9365	8.51	308.20588426394
70	9492	8.61	310.85217021492
70	9619	8.71	313.49063353908
70	9746	8.81	316.12026318666
70	9873	8.91	318.74033462921
70	10008	9.01	321.35044973956
70	10135	9.11	323.95056326191
70	10262	9.21	326.54099657663
70	10389	9.31	329.12243959145
70	10516	9.41	331.6959416988
70	10643	9.51	334.262892829
70	10770	9.61	336.82499570194
70	10897	9.71	339.3842304359
70	11024	9.81	341.94281209096
70	11151	9.91	344.50304521837
70	11286	10.01	347.06702561814
70	11413	10.11	349.63645566576
70	11540	10.21	352.21267216178
70	11667	10.31	354.79668869959
69	246	1.11	27.766031335739
69	365	1.21	27.726748020446
69	483	1.31	27.66498782226
69	602	1.41	27.585835593839
69	721	1.51	27.493764566211
69	839	1.61	27.392673558145
69	957	1.71	27.285926497544
69	1076	1.81	27.176393260341
69	1194	1.91	27.066490982992
69	1323	2.01	26.958225142178
69	1441	2.11	26.853229819994
69	1559	2.21	26.752806684946
69	1677	2.31	26.65796231908
69	1795	2.41	26.569443609953
69	1913	2.51	26.487771003684
69	2031	2.61	26.413269482631
69	2149	2.71	26.346097189081
69	2267	2.81	26.286271665399
69	2385	2.91	26.233693722288
69	2511	3.01	26.188168980636
69	2629	3.11	26.149427159893
69	2747	3.21	26.117139207469
69	2865	3.31	26.090932380146
69	2983	3.41	26.070403400443
69	3101	3.51	26.055129818918
69	3219	3.61	26.044679718101
69	3337	3.71	26.03861989556
69	3455	3.81	26.036522663044
69	3573	3.91	26.037971396133
69	3699	4.01	26.042564964634
69	3817	4.11	26.049921168624
69	3935	4.21	26.059679298622
69	4053	4.31	26.071501931346
69	4171	4.41	26.085076064954
69	4289	4.51	26.10011368984
69	4407	4.61	26.116351883147
69	4525	4.71	26.133552507216
69	4643	4.81	26.151501584473
69	4761	4.91	26.170008413679
69	4896	5.01	26.188904485267
69	5023	5.11	26.208042246642
69	5150	5.21	26.22729376185
69	5277	5.31	26.246549304015
69	5404	5.41	26.265715913371
69	5531	5.51	26.28471594862
69	5658	5.61	26.303485654674
69	5785	5.71	26.321973765657
69	5912	5.81	26.340140158256
69	6039	5.91	26.357954567174
69	6174	6.01	26.375395371472
69	6301	6.11	26.39244845802
69	6428	6.21	26.409106166026
69	6555	6.31	26.425366314729
69	6682	6.41	26.441231314694
69	6809	6.51	26.456707361841
69	6936	6.61	26.471803712211
69	7063	6.71	26.486532034602
69	7190	6.81	26.500905837529
69	7317	6.91	26.514939966418
69	7452	7.01	26.528650166634
69	7579	7.11	26.542052707633
69	7706	7.21	26.55516406347
69	7833	7.31	26.568000644834
69	7960	7.41	26.580578577816
69	8087	7.51	26.592913524771
69	8214	7.61	26.605020542742
69	8341	7.71	26.616913975171
69	8468	7.81	26.628607372819
69	8595	7.91	26.640053671217
69	8730	8.01	26.64765396658
69	8857	8.11	26.646642554834
69	8984	8.21	26.633610495317
69	9111	8.31	26.606489260326
69	9238	8.41	26.564417393695
69	9365	8.51	26.507600284127
69	9492	8.61	26.437165840535
69	9619	8.71	26.355018589589
69	9746	8.81	26.263694464029
69	9873	8.91	26.166218313193
69	10008	9.01	26.065965943291
69	10135	9.11	25.966532282982
69	10262	9.21	25.871607068276
69	10389	9.31	25.784859248459
69	10516	9.41	25.709831130263
69	10643	9.51	25.649843099915
69	10770	9.61	25.607909591046
69	10897	9.71	25.586666800093
69	11024	9.81	25.588281468146
69	11151	9.91	25.612655469768
69	11286	10.01	25.656652450272
69	11413	10.11	25.716330434626
69	11540	10.21	25.788185195557
69	11667	10.31	25.86912823164
67	246	1.11	0.011747289749106
67	365	1.21	0.051030605042062
67	483	1.31	0.11279080322838
67	602	1.41	0.19194303164909
67	721	1.51	0.28401405927749
67	839	1.61	0.38510506734342
67	957	1.71	0.49185212794429
67	1076	1.81	0.60138536514688
67	1194	1.91	0.71128764249616
67	1323	2.01	0.81955348330991
67	1441	2.11	0.92454880549457
67	1559	2.21	1.0249719405427
67	1677	2.31	1.1198163064081
67	1795	2.41	1.2083350155349
67	1913	2.51	1.2900076218048
67	2031	2.61	1.364509142857
67	2149	2.71	1.4316814364076
67	2267	2.81	1.4915069600893
67	2385	2.91	1.5440849032007
67	2511	3.01	1.5896096448521
67	2629	3.11	1.6283514655949
67	2747	3.21	1.6606394180192
67	2865	3.31	1.6868462453421
67	2983	3.41	1.7073752250455
67	3101	3.51	1.7226488065705
67	3219	3.61	1.7330989073869
67	3337	3.71	1.7391587299288
67	3455	3.81	1.7412559624445
67	3573	3.91	1.7398072293557
67	3699	4.01	1.7352136608541
67	3817	4.11	1.7278574568639
67	3935	4.21	1.7180993268664
67	4053	4.31	1.7062766941425
67	4171	4.41	1.6927025605347
67	4289	4.51	1.6776649356479
67	4407	4.61	1.6614267423415
67	4525	4.71	1.6442261182727
67	4643	4.81	1.626277041015
67	4761	4.91	1.607770211809
67	4896	5.01	1.5888741402213
67	5023	5.11	1.5697363788463
67	5150	5.21	1.5504848636379
67	5277	5.31	1.531229321473
67	5404	5.41	1.512062712117
67	5531	5.51	1.4930626768683
67	5658	5.61	1.4742929708141
67	5785	5.71	1.455804859831
67	5912	5.81	1.4376384672318
67	6039	5.91	1.4198240583141
67	6174	6.01	1.402383254016
67	6301	6.11	1.3853301674684
67	6428	6.21	1.3686724594619
67	6555	6.31	1.3524123107592
67	6682	6.41	1.3365473107946
67	6809	6.51	1.3210712636476
67	6936	6.61	1.3059749132776
67	7063	6.71	1.2912465908858
67	7190	6.81	1.2768727879597
67	7317	6.91	1.26283865907
67	7452	7.01	1.2491284588538
67	7579	7.11	1.2357259178552
67	7706	7.21	1.2226145620178
67	7833	7.31	1.2097779806544
67	7960	7.41	1.1972000476719
67	8087	7.51	1.1848651007172
67	8214	7.61	1.1727580827467
67	8341	7.71	1.1608646503177
67	8468	7.81	1.1491712526697
67	8595	7.91	1.137724954271
67	8730	8.01	1.1301246589086
67	8857	8.11	1.1311360706548
67	8984	8.21	1.1441681301709
67	9111	8.31	1.171289365162
67	9238	8.41	1.213361231793
67	9365	8.51	1.2701783413612
67	9492	8.61	1.3406127849529
67	9619	8.71	1.4227600358991
67	9746	8.81	1.514084161459
67	9873	8.91	1.6115603122953
67	10008	9.01	1.7118126821971
67	10135	9.11	1.8112463425066
67	10262	9.21	1.9061715572126
67	10389	9.31	1.9929193770292
67	10516	9.41	2.0679474952252
67	10643	9.51	2.1279355255735
67	10770	9.61	2.1698690344425
67	10897	9.71	2.1911118253953
67	11024	9.81	2.1894971573421
67	11151	9.91	2.1651231557199
67	11286	10.01	2.1211261752163
67	11413	10.11	2.0614481908627
67	11540	10.21	1.9895934299314
67	11667	10.31	1.9086503938481
66	246	1.11	15.000297416791
66	365	1.21	15.003031824166
66	483	1.31	15.010750587062
66	602	1.41	15.025467384139
66	721	1.51	15.048715226312
66	839	1.61	15.081605968083
66	957	1.71	15.124885985039
66	1076	1.81	15.178987832363
66	1194	1.91	15.244077791756
66	1323	2.01	15.320099292305
66	1441	2.11	15.406812255707
66	1559	2.21	15.50382846932
66	1677	2.31	15.610643132875
66	1795	2.41	15.726662757562
66	1913	2.51	15.851229620796
66	2031	2.61	15.983642997179
66	2149	2.71	16.12317739721
66	2267	2.81	16.269098050805
66	2385	2.91	16.420673873794
66	2511	3.01	16.577188152773
66	2629	3.11	16.737947177883
66	2747	3.21	16.90228704475
66	2865	3.31	17.069578836628
66	2983	3.41	17.239232386069
66	3101	3.51	17.410698802802
66	3219	3.61	17.583471941139
66	3337	3.71	17.757088966555
66	3455	3.81	17.93113016737
66	3573	3.91	18.10521814383
66	3699	4.01	18.279016493648
66	3817	4.11	18.452228100255
66	3935	4.21	18.624593117807
66	4053	4.31	18.795886735471
66	4171	4.41	18.965916792673
66	4289	4.51	19.13452130699
66	4407	4.61	19.301565967089
66	4525	4.71	19.466941634658
66	4643	4.81	19.630561891634
66	4761	4.91	19.792360662073
66	4896	5.01	19.952289931889
66	5023	5.11	20.110317584207
66	5150	5.21	20.266425363272
66	5277	5.31	20.420606975717
66	5404	5.41	20.57286633438
66	5531	5.51	20.723215946828
66	5658	5.61	20.871675448185
66	5785	5.71	21.018270275729
66	5912	5.81	21.163030481043
66	6039	5.91	21.305989674112
66	6174	6.01	21.447184092754
66	6301	6.11	21.586651789983
66	6428	6.21	21.724431931404
66	6555	6.31	21.860564194423
66	6682	6.41	21.995088260924
66	6809	6.51	22.128043395084
66	6936	6.61	22.259468098121
66	7063	6.71	22.38939983205
66	7190	6.81	22.517874804786
66	7317	6.91	22.644927809361
66	7452	7.01	22.770592110423
66	7579	7.11	22.894899371639
66	7706	7.21	23.017879618106
66	7833	7.31	23.139561228356
66	7960	7.41	23.259970951016
66	8087	7.51	23.379133941654
66	8214	7.61	23.497073815818
66	8341	7.71	23.613812714698
66	8468	7.81	23.729371380266
66	8595	7.91	23.843769237158
66	8730	8.01	23.957151165474
66	8857	8.11	24.070126197672
66	8984	8.21	24.183720424078
66	9111	8.31	24.299239454148
66	9238	8.41	24.418140307465
66	9365	8.51	24.541916972703
66	9492	8.61	24.6720001954
66	9619	8.71	24.80967178877
66	9746	8.81	24.955993521224
66	9873	8.91	25.11175041821
66	10008	9.01	25.277408123008
66	10135	9.11	25.45308379
66	10262	9.21	25.638529833542
66	10389	9.31	25.833129724873
66	10516	9.41	26.035904917705
66	10643	9.51	26.245531889452
66	10770	9.61	26.460368208876
66	10897	9.71	26.678486481653
66	11024	9.81	26.897714982501
66	11151	9.91	27.115747197674
66	11286	10.01	27.330424600058
66	11413	10.11	27.539965974679
66	11540	10.21	27.742964436424
66	11667	10.31	27.938344621887
68	246	1.11	0
68	365	1.21	0
68	483	1.31	0
68	602	1.41	0
68	721	1.51	0
68	839	1.61	0
68	957	1.71	0
68	1076	1.81	0
68	1194	1.91	0
68	1323	2.01	0
68	1441	2.11	0
68	1559	2.21	0
68	1677	2.31	0
68	1795	2.41	0
68	1913	2.51	0
68	2031	2.61	0
68	2149	2.71	0
68	2267	2.81	0
68	2385	2.91	0
68	2511	3.01	0
68	2629	3.11	0
68	2747	3.21	0
68	2865	3.31	0
68	2983	3.41	0
68	3101	3.51	0
68	3219	3.61	0
68	3337	3.71	0
68	3455	3.81	0
68	3573	3.91	0
68	3699	4.01	0
68	3817	4.11	0
68	3935	4.21	0
68	4053	4.31	0
68	4171	4.41	0
68	4289	4.51	0
68	4407	4.61	0
68	4525	4.71	0
68	4643	4.81	0
68	4761	4.91	0
68	4896	5.01	0
68	5023	5.11	0
68	5150	5.21	0
68	5277	5.31	0
68	5404	5.41	0
68	5531	5.51	0
68	5658	5.61	0
68	5785	5.71	0
68	5912	5.81	0
68	6039	5.91	0
68	6174	6.01	0
68	6301	6.11	0
68	6428	6.21	0
68	6555	6.31	0
68	6682	6.41	0
68	6809	6.51	0
68	6936	6.61	0
68	7063	6.71	0
68	7190	6.81	0
68	7317	6.91	0
68	7452	7.01	0
68	7579	7.11	0
68	7706	7.21	0
68	7833	7.31	0
68	7960	7.41	0
68	8087	7.51	0
68	8214	7.61	0
68	8341	7.71	0
68	8468	7.81	0
68	8595	7.91	0
68	8730	8.01	0
68	8857	8.11	0
68	8984	8.21	0
68	9111	8.31	0
68	9238	8.41	0
68	9365	8.51	0
68	9492	8.61	0
68	9619	8.71	0
68	9746	8.81	0
68	9873	8.91	0
68	10008	9.01	0
68	10135	9.11	0
68	10262	9.21	0
68	10389	9.31	0
68	10516	9.41	0
68	10643	9.51	0
68	10770	9.61	0
68	10897	9.71	0
68	11024	9.81	0
68	11151	9.91	0
68	11286	10.01	0
68	11413	10.11	0
68	11540	10.21	0
68	11667	10.31	0
76	1291	2	0
76	2481	3	0
76	3669	4	0
76	4866	5	0
76	6135	6	0
76	7413	7	0
76	8691	8	0
76	9969	9	0
76	11247	10	0
75	1291	2	0.003976
75	2481	3	0.00497
75	3669	4	0.00497
75	4866	5	0.00497
75	6135	6	0.00497
75	7413	7	0.00497
75	8691	8	0.00497
75	9969	9	0.00497
75	11247	10	0.00497
74	1291	2	0
74	2481	3	0
74	3669	4	0
74	4866	5	0
74	6135	6	0
74	7413	7	0
74	8691	8	0
74	9969	9	0
74	11247	10	0
95	247	1.11	0
95	366	1.21	0
95	484	1.31	0
95	603	1.41	0
95	722	1.51	0
95	840	1.61	0
95	958	1.71	0
95	1077	1.81	0
95	1195	1.91	0
95	1324	2.01	0
95	1442	2.11	0
95	1560	2.21	0
95	1678	2.31	0
[...]
156	1681	2.31	2
156	1799	2.41	2
156	1917	2.51	2
156	2035	2.61	2
156	2153	2.71	2
156	2271	2.81	2
156	2389	2.91	2
156	2515	3.01	2
156	2633	3.11	2
156	2751	3.21	2
156	2869	3.31	2
156	2987	3.41	2
156	3105	3.51	2
156	3223	3.61	2
156	3341	3.71	2
156	3459	3.81	2
156	3577	3.91	2
156	3703	4.01	2
156	3821	4.11	2
156	3939	4.21	2
156	4057	4.31	2
156	4175	4.41	2
156	4293	4.51	2
156	4411	4.61	2
156	4529	4.71	2
156	4647	4.81	2
156	4765	4.91	2
156	4900	5.01	2
156	5027	5.11	2
156	5154	5.21	2
156	5281	5.31	2
156	5408	5.41	2
156	5535	5.51	2
156	5662	5.61	2
156	5789	5.71	2
156	5916	5.81	2
156	6043	5.91	2
156	6178	6.01	2
156	6305	6.11	2
156	6432	6.21	2
156	6559	6.31	2
156	6686	6.41	2
156	6813	6.51	2
156	6940	6.61	2
156	7067	6.71	2
156	7194	6.81	2
156	7321	6.91	2
156	7456	7.01	2
156	7583	7.11	2
156	7710	7.21	2
156	7837	7.31	2
156	7964	7.41	2
156	8091	7.51	2
156	8218	7.61	2
156	8345	7.71	2
156	8472	7.81	2
156	8599	7.91	2
156	8734	8.01	2
156	8861	8.11	2
156	8988	8.21	2
156	9115	8.31	2
156	9242	8.41	2
156	9369	8.51	2
156	9496	8.61	2
156	9623	8.71	2
156	9750	8.81	2
156	9877	8.91	2
156	10012	9.01	2
156	10139	9.11	2
156	10266	9.21	2
156	10393	9.31	2
156	10520	9.41	2
156	10647	9.51	2
156	10774	9.61	2
156	10901	9.71	2
156	11028	9.81	2
156	11155	9.91	2
156	11290	10.01	2
156	11417	10.11	2
156	11544	10.21	2
156	11671	10.31	2
164	1295	2	0
164	2485	3	0
164	3673	4	0
164	4870	5	0
164	6139	6	0
164	7417	7	0
164	8695	8	0
164	9973	9	0
164	11251	10	0
163	1295	2	0.004473
163	2485	3	0.00497
163	3673	4	0.00497
163	4870	5	0.00497
163	6139	6	0.00497
163	7417	7	0.00497
163	8695	8	0.00497
163	9973	9	0.00497
163	11251	10	0.00497
162	1295	2	2
162	2485	3	2
162	3673	4	2
162	4870	5	2
162	6139	6	2
162	7417	7	2
162	8695	8	2
162	9973	9	2
162	11251	10	2
132	249	1.11	12.999702583209
132	368	1.21	12.996968175834
132	486	1.31	12.989249412938
132	605	1.41	12.974532615861
132	724	1.51	12.951284773688
132	842	1.61	12.918394031917
132	960	1.71	12.875114014961
132	1079	1.81	12.821012167637
132	1197	1.91	12.755922208244
132	1326	2.01	12.679900707695
132	1444	2.11	12.593187744293
132	1562	2.21	12.49617153068
132	1680	2.31	12.389356867125
132	1798	2.41	12.273337242438
132	1916	2.51	12.148770379204
132	2034	2.61	12.016357002821
132	2152	2.71	11.87682260279
132	2270	2.81	11.730901949195
132	2388	2.91	11.579326126206
132	2514	3.01	11.422811847227
132	2632	3.11	11.262052822117
132	2750	3.21	11.09771295525
132	2868	3.31	10.930421163372
132	2986	3.41	10.760767613931
132	3104	3.51	10.589301197198
132	3222	3.61	10.416528058861
132	3340	3.71	10.242911033445
132	3458	3.81	10.06886983263
132	3576	3.91	9.8947818561699
132	3702	4.01	9.7209835063516
132	3820	4.11	9.5477718997451
132	3938	4.21	9.3754068821929
132	4056	4.31	9.2041132645294
132	4174	4.41	9.0340832073274
132	4292	4.51	8.8654786930096
132	4410	4.61	8.6984340329111
132	4528	4.71	8.5330583653415
132	4646	4.81	8.3694381083655
132	4764	4.91	8.207639337927
132	4899	5.01	8.0477100681107
132	5026	5.11	7.8896824157927
132	5153	5.21	7.7335746367275
132	5280	5.31	7.5793930242827
132	5407	5.41	7.4271336656201
132	5534	5.51	7.2767840531716
132	5661	5.61	7.1283245518147
132	5788	5.71	6.9817297242706
132	5915	5.81	6.8369695189572
132	6042	5.91	6.6940103258883
132	6177	6.01	6.5528159072462
132	6304	6.11	6.4133482100172
132	6431	6.21	6.2755680685964
132	6558	6.31	6.1394358055774
132	6685	6.41	6.0049117390755
132	6812	6.51	5.871956604916
132	6939	6.61	5.7405319018786
132	7066	6.71	5.6106001679499
132	7193	6.81	5.4821251952144
132	7320	6.91	5.3550721906391
132	7455	7.01	5.2294078895765
132	7582	7.11	5.1051006283606
132	7709	7.21	4.9821203818939
132	7836	7.31	4.8604387716438
132	7963	7.41	4.7400290489842
132	8090	7.51	4.6208660583463
132	8217	7.61	4.5029261841819
132	8344	7.71	4.3861872853022
132	8471	7.81	4.2706286197343
132	8598	7.91	4.1562307628419
132	8733	8.01	4.0428488345263
132	8860	8.11	3.9298738023276
132	8987	8.21	3.8162795759222
132	9114	8.31	3.7007605458517
132	9241	8.41	3.5818596925349
132	9368	8.51	3.4580830272973
132	9495	8.61	3.3279998046001
132	9622	8.71	3.1903282112301
132	9749	8.81	3.0440064787759
132	9876	8.91	2.8882495817895
132	10011	9.01	2.722591876992
132	10138	9.11	2.5469162100002
132	10265	9.21	2.3614701664581
132	10392	9.31	2.1668702751265
132	10519	9.41	1.9640950822948
132	10646	9.51	1.7544681105484
132	10773	9.61	1.5396317911245
132	10900	9.71	1.3215135183472
132	11027	9.81	1.1022850174986
132	11154	9.91	0.88425280232588
132	11289	10.01	0.66957539994161
132	11416	10.11	0.46003402532097
132	11543	10.21	0.25703556357587
132	11670	10.31	0.061655378113301
132	11706	10.33	0
133	249	1.11	-0.0092700445431113
133	368	1.21	-0.04600142717133
133	486	1.31	-0.10575315302479
133	605	1.41	-0.18337728340697
133	724	1.51	-0.27434105193008
133	842	1.61	-0.37468994722495
133	960	1.71	-0.48100837540281
133	1079	1.81	-0.59037891254965
133	1197	1.91	-0.70034100563966
133	1326	2.01	-0.80884984141651
133	1444	2.11	-0.91423597686963
133	1562	2.21	-1.0151662116203
133	1680	2.31	-1.1106060813803
133	1798	2.41	-1.1997842620998
133	1916	2.51	-1.282159095848
133	2034	2.61	-1.3573873811749
133	2152	2.71	-1.4252955119565
133	2270	2.81	-1.4858529987858
133	2388	2.91	-1.5391483650726
133	2514	3.01	-1.5853673754272
133	2632	3.11	-1.6247735258795
133	2750	3.21	-1.6576907033404
133	2868	3.31	-1.6844879047581
133	2986	3.41	-1.7055658940408
133	3104	3.51	-1.7213456663979
133	3222	3.61	-1.73225858475
133	3340	3.71	-1.7387380507663
133	3458	3.81	-1.7412125734278
133	3576	3.91	-1.7401001003763
133	3702	4.01	-1.7358034813039
133	3820	4.11	-1.7287069379238
133	3938	4.21	-1.7191734213439
133	4056	4.31	-1.7075427446701
133	4174	4.41	-1.6941303861712
133	4292	4.51	-1.6792268661327
133	4410	4.61	-1.6630976084607
133	4528	4.71	-1.6459832060078
133	4646	4.81	-1.6281000163789
133	4764	4.91	-1.6096410225328
133	4899	5.01	-1.5907768997488
133	5026	5.11	-1.5716572374265
133	5153	5.21	-1.5524118706779
133	5280	5.31	-1.5331522827335
133	5407	5.41	-1.5139730447956
133	5534	5.51	-1.4949532651263
133	5661	5.61	-1.4761580238572
133	5788	5.71	-1.4576397742537
133	5915	5.81	-1.4394396949774
133	6042	5.91	-1.4215889812867
133	6177	6.01	-1.4041100661006
133	6304	6.11	-1.3870177644747
133	6431	6.21	-1.3703203372992
133	6558	6.31	-1.3540204719714
133	6685	6.41	-1.3381161794368
133	6812	6.51	-1.3226016083627
133	6939	6.61	-1.3074677783301
133	7066	6.71	-1.2927032348333
133	7193	6.81	-1.27829462958
133	7320	6.91	-1.2642272301185
133	7455	7.01	-1.2504853631947
133	7582	7.11	-1.2370527964932
133	7709	7.21	-1.2239130635464
133	7836	7.31	-1.2110497366408
133	7963	7.41	-1.198446652504
133	8090	7.51	-1.1860880954528
133	8217	7.61	-1.1739589425229
133	8344	7.71	-1.1620447749017
133	8471	7.81	-1.1503319597545
133	8598	7.91	-1.1388077062798
133	8733	8.01	-1.1305877261481
133	8860	8.11	-1.1305596348685
133	8987	8.21	-1.1422734199654
133	9114	8.31	-1.1679258212786
133	9241	8.41	-1.2084928192899
133	9368	8.51	-1.2638693026652
133	9495	8.61	-1.3330131001665
133	9622	8.71	-1.4140908307564
133	9749	8.81	-1.5046232788454
133	9876	8.91	-1.6016282401613
133	10011	9.01	-1.7017590088768
133	10138	9.11	-1.8014368897596
133	10265	9.21	-1.896976321603
133	10392	9.31	-1.9847013914071
133	10519	9.41	-2.0610527039666
133	10646	9.51	-2.1226837497693
133	10773	9.61	-2.1665460863172
133	10900	9.71	-2.1899628148383
133	11027	9.81	-2.1906899962957
133	11154	9.91	-2.1685125311658
133	11289	10.01	-2.126293062841
133	11416	10.11	-2.0680184286429
133	11543	10.21	-1.9972356887175
133	11670	10.31	-1.9170738477344
133	11706	10.33	-1.8916151506838
134	249	1.11	1
134	368	1.21	1
134	486	1.31	1
134	605	1.41	1
134	724	1.51	1
134	842	1.61	1
134	960	1.71	1
134	1079	1.81	1
134	1197	1.91	1
134	1326	2.01	1
134	1444	2.11	1
134	1562	2.21	1
134	1680	2.31	1
134	1798	2.41	1
134	1916	2.51	1
134	2034	2.61	1
134	2152	2.71	1
134	2270	2.81	1
134	2388	2.91	1
134	2514	3.01	1
134	2632	3.11	1
134	2750	3.21	1
134	2868	3.31	1
134	2986	3.41	1
134	3104	3.51	1
134	3222	3.61	1
134	3340	3.71	1
134	3458	3.81	1
134	3576	3.91	1
134	3702	4.01	1
134	3820	4.11	1
134	3938	4.21	1
134	4056	4.31	1
134	4174	4.41	1
134	4292	4.51	1
134	4410	4.61	1
134	4528	4.71	1
134	4646	4.81	1
134	4764	4.91	1
134	4899	5.01	1
134	5026	5.11	1
134	5153	5.21	1
134	5280	5.31	1
134	5407	5.41	1
134	5534	5.51	1
134	5661	5.61	1
134	5788	5.71	1
134	5915	5.81	1
134	6042	5.91	1
134	6177	6.01	1
134	6304	6.11	1
134	6431	6.21	1
134	6558	6.31	1
134	6685	6.41	1
134	6812	6.51	1
134	6939	6.61	1
134	7066	6.71	1
134	7193	6.81	1
134	7320	6.91	1
134	7455	7.01	1
134	7582	7.11	1
134	7709	7.21	1
134	7836	7.31	1
134	7963	7.41	1
134	8090	7.51	1
134	8217	7.61	1
134	8344	7.71	1
134	8471	7.81	1
134	8598	7.91	1
134	8733	8.01	1
134	8860	8.11	1
134	8987	8.21	1
134	9114	8.31	1
134	9241	8.41	1
134	9368	8.51	1
134	9495	8.61	1
134	9622	8.71	1
134	9749	8.81	1
134	9876	8.91	1
134	10011	9.01	1
134	10138	9.11	1
134	10265	9.21	1
134	10392	9.31	1
134	10519	9.41	1
134	10646	9.51	1
134	10773	9.61	1
134	10900	9.71	1
134	11027	9.81	1
134	11154	9.91	1
134	11289	10.01	1
134	11416	10.11	1
134	11543	10.21	1
134	11670	10.31	1
134	11706	10.33	1
135	249	1.11	27.777778625488
135	368	1.21	27.777778625488
135	486	1.31	27.777778625488
135	605	1.41	27.777778625488
135	724	1.51	27.777778625488
135	842	1.61	27.777778625488
135	960	1.71	27.777778625488
135	1079	1.81	27.777778625488
135	1197	1.91	27.777778625488
135	1326	2.01	27.777778625488
135	1444	2.11	27.777778625488
135	1562	2.21	27.777778625488
135	1680	2.31	27.777778625488
135	1798	2.41	27.777778625488
135	1916	2.51	27.777778625488
135	2034	2.61	27.777778625488
135	2152	2.71	27.777778625488
135	2270	2.81	27.777778625488
135	2388	2.91	27.777778625488
135	2514	3.01	27.777778625488
135	2632	3.11	27.777778625488
135	2750	3.21	27.777778625488
135	2868	3.31	27.777778625488
135	2986	3.41	27.777778625488
135	3104	3.51	27.777778625488
135	3222	3.61	27.777778625488
135	3340	3.71	27.777778625488
135	3458	3.81	27.777778625488
135	3576	3.91	27.777778625488
135	3702	4.01	27.777778625488
135	3820	4.11	27.777778625488
135	3938	4.21	27.777778625488
135	4056	4.31	27.777778625488
135	4174	4.41	27.777778625488
135	4292	4.51	27.777778625488
135	4410	4.61	27.777778625488
135	4528	4.71	27.777778625488
135	4646	4.81	27.777778625488
135	4764	4.91	27.777778625488
135	4899	5.01	27.777778625488
135	5026	5.11	27.777778625488
135	5153	5.21	27.777778625488
135	5280	5.31	27.777778625488
135	5407	5.41	27.777778625488
135	5534	5.51	27.777778625488
135	5661	5.61	27.777778625488
135	5788	5.71	27.777778625488
135	5915	5.81	27.777778625488
135	6042	5.91	27.777778625488
135	6177	6.01	27.777778625488
135	6304	6.11	27.777778625488
135	6431	6.21	27.777778625488
135	6558	6.31	27.777778625488
135	6685	6.41	27.777778625488
135	6812	6.51	27.777778625488
135	6939	6.61	27.777778625488
135	7066	6.71	27.777778625488
135	7193	6.81	27.777778625488
135	7320	6.91	27.777778625488
135	7455	7.01	27.777778625488
135	7582	7.11	27.777778625488
135	7709	7.21	27.777778625488
135	7836	7.31	27.777778625488
135	7963	7.41	27.777778625488
135	8090	7.51	27.777778625488
135	8217	7.61	27.777778625488
135	8344	7.71	27.777778625488
135	8471	7.81	27.777778625488
135	8598	7.91	27.777778625488
135	8733	8.01	27.777778625488
135	8860	8.11	27.777778625488
135	8987	8.21	27.777778625488
135	9114	8.31	27.777778625488
135	9241	8.41	27.777778625488
135	9368	8.51	27.777778625488
135	9495	8.61	27.777778625488
135	9622	8.71	27.777778625488
135	9749	8.81	27.777778625488
135	9876	8.91	27.777778625488
135	10011	9.01	27.777778625488
135	10138	9.11	27.777778625488
135	10265	9.21	27.777778625488
135	10392	9.31	27.777778625488
135	10519	9.41	27.777778625488
135	10646	9.51	27.777778625488
135	10773	9.61	27.777778625488
135	10900	9.71	27.777778625488
135	11027	9.81	27.777778625488
135	11154	9.91	27.777778625488
135	11289	10.01	27.777778625488
135	11416	10.11	27.777778625488
135	11543	10.21	27.777778625488
135	11670	10.31	27.777778625488
135	11706	10.33	27.777778625488
136	249	1.11	93.217642974854
136	368	1.21	95.995420837402
136	486	1.31	98.773198699951
136	605	1.41	101.5509765625
136	724	1.51	104.32875442505
136	842	1.61	107.1065322876
136	960	1.71	109.88431015015
136	1079	1.81	112.6620880127
136	1197	1.91	115.43986587524
136	1326	2.01	118.21764373779
136	1444	2.11	120.99542160034
136	1562	2.21	123.77319946289
136	1680	2.31	126.55097732544
136	1798	2.41	129.32875518799
136	1916	2.51	132.10653305054
136	2034	2.61	134.88431091309
136	2152	2.71	137.66208877564
136	2270	2.81	140.43986663818
136	2388	2.91	143.21764450073
136	2514	3.01	145.99542236328
136	2632	3.11	148.77320022583
136	2750	3.21	151.55097808838
136	2868	3.31	154.32875595093
136	2986	3.41	157.10653381348
136	3104	3.51	159.88431167603
136	3222	3.61	162.66208953858
136	3340	3.71	165.43986740112
136	3458	3.81	168.21764526367
136	3576	3.91	170.99542312622
136	3702	4.01	173.77320098877
136	3820	4.11	176.55097885132
136	3938	4.21	179.32875671387
136	4056	4.31	182.10653457642
136	4174	4.41	184.88431243897
136	4292	4.51	187.66209030152
136	4410	4.61	190.43986816406
136	4528	4.71	193.21764602661
136	4646	4.81	195.99542388916
136	4764	4.91	198.77320175171
136	4899	5.01	201.55097961426
136	5026	5.11	204.32875747681
136	5153	5.21	207.10653533936
136	5280	5.31	209.88431320191
136	5407	5.41	212.66209106446
136	5534	5.51	215.439868927
136	5661	5.61	218.21764678955
136	5788	5.71	220.9954246521
136	5915	5.81	223.77320251465
136	6042	5.91	226.5509803772
136	6177	6.01	229.32875823975
136	6304	6.11	232.1065361023
136	6431	6.21	234.88431396485
136	6558	6.31	237.66209182739
136	6685	6.41	240.43986968994
136	6812	6.51	243.21764755249
136	6939	6.61	245.99542541504
136	7066	6.71	248.77320327759
136	7193	6.81	251.55098114014
136	7320	6.91	254.32875900269
136	7455	7.01	257.10653686524
136	7582	7.11	259.88431472779
136	7709	7.21	262.66209259033
136	7836	7.31	265.43987045288
136	7963	7.41	268.21764831543
136	8090	7.51	270.99542617798
136	8217	7.61	273.77320404053
136	8344	7.71	276.55098190308
136	8471	7.81	279.32875976563
136	8598	7.91	282.10653762818
136	8733	8.01	284.88431549073
136	8860	8.11	287.66209335327
136	8987	8.21	290.43987121582
136	9114	8.31	293.21764907837
136	9241	8.41	295.99542694092
136	9368	8.51	298.77320480347
136	9495	8.61	301.55098266602
136	9622	8.71	304.32876052857
136	9749	8.81	307.10653839112
136	9876	8.91	309.88431625367
136	10011	9.01	312.66209411621
136	10138	9.11	315.43987197876
136	10265	9.21	318.21764984131
136	10392	9.31	320.99542770386
136	10519	9.41	323.77320556641
136	10646	9.51	326.55098342896
136	10773	9.61	329.32876129151
136	10900	9.71	332.10653915406
136	11027	9.81	334.88431701661
136	11154	9.91	337.66209487915
136	11289	10.01	340.4398727417
136	11416	10.11	343.21765060425
136	11543	10.21	345.9954284668
136	11670	10.31	348.77320632935
136	11706	10.33	349.32876190186
137	249	1.11	36.55
137	368	1.21	36.55
137	486	1.31	36.55
137	605	1.41	36.55
137	724	1.51	36.55
137	842	1.61	36.55
137	960	1.71	36.55
137	1079	1.81	36.55
137	1197	1.91	36.55
137	1326	2.01	36.55
137	1444	2.11	36.55
137	1562	2.21	36.55
137	1680	2.31	36.55
137	1798	2.41	36.55
137	1916	2.51	36.55
137	2034	2.61	36.55
137	2152	2.71	36.55
137	2270	2.81	36.55
137	2388	2.91	36.55
137	2514	3.01	36.55
137	2632	3.11	36.55
137	2750	3.21	36.55
137	2868	3.31	36.55
137	2986	3.41	36.55
137	3104	3.51	36.55
137	3222	3.61	36.55
137	3340	3.71	36.55
137	3458	3.81	36.55
137	3576	3.91	36.55
137	3702	4.01	36.55
137	3820	4.11	36.55
137	3938	4.21	36.55
137	4056	4.31	36.55
137	4174	4.41	36.55
137	4292	4.51	36.55
137	4410	4.61	36.55
137	4528	4.71	36.55
137	4646	4.81	36.55
137	4764	4.91	36.55
137	4899	5.01	36.55
137	5026	5.11	36.55
137	5153	5.21	36.55
137	5280	5.31	36.55
137	5407	5.41	36.55
137	5534	5.51	36.55
137	5661	5.61	36.55
137	5788	5.71	36.55
137	5915	5.81	36.55
137	6042	5.91	36.55
137	6177	6.01	36.55
137	6304	6.11	36.55
137	6431	6.21	36.55
137	6558	6.31	36.55
137	6685	6.41	36.55
137	6812	6.51	36.55
137	6939	6.61	36.55
137	7066	6.71	36.55
137	7193	6.81	36.55
137	7320	6.91	36.55
137	7455	7.01	36.55
137	7582	7.11	36.55
137	7709	7.21	36.55
137	7836	7.31	36.55
137	7963	7.41	36.55
137	8090	7.51	36.55
137	8217	7.61	36.55
137	8344	7.71	36.55
137	8471	7.81	36.55
137	8598	7.91	36.55
137	8733	8.01	36.55
137	8860	8.11	36.55
137	8987	8.21	36.55
137	9114	8.31	36.55
137	9241	8.41	36.55
137	9368	8.51	36.55
137	9495	8.61	36.55
137	9622	8.71	36.55
137	9749	8.81	36.55
137	9876	8.91	36.55
137	10011	9.01	36.55
137	10138	9.11	36.55
137	10265	9.21	36.55
137	10392	9.31	36.55
137	10519	9.41	36.55
137	10646	9.51	36.55
137	10773	9.61	36.55
137	10900	9.71	36.55
137	11027	9.81	36.55
137	11154	9.91	36.55
137	11289	10.01	36.55
137	11416	10.11	36.55
137	11543	10.21	36.55
137	11670	10.31	36.55
137	11706	10.33	36.55
138	249	1.11	0
138	368	1.21	0
138	486	1.31	0
138	605	1.41	0
138	724	1.51	0
138	842	1.61	0
138	960	1.71	0
138	1079	1.81	0
138	1197	1.91	0
138	1326	2.01	0
138	1444	2.11	0
138	1562	2.21	0
138	1680	2.31	0
138	1798	2.41	0
138	1916	2.51	0
138	2034	2.61	0
138	2152	2.71	0
138	2270	2.81	0
138	2388	2.91	0
138	2514	3.01	0
138	2632	3.11	0
138	2750	3.21	0
138	2868	3.31	0
138	2986	3.41	0
138	3104	3.51	0
138	3222	3.61	0
138	3340	3.71	0
138	3458	3.81	0
138	3576	3.91	0
138	3702	4.01	0
138	3820	4.11	0
138	3938	4.21	0
138	4056	4.31	0
138	4174	4.41	0
138	4292	4.51	0
138	4410	4.61	0
138	4528	4.71	0
138	4646	4.81	0
138	4764	4.91	0
138	4899	5.01	0
138	5026	5.11	0
138	5153	5.21	0
138	5280	5.31	0
138	5407	5.41	0
138	5534	5.51	0
138	5661	5.61	0
138	5788	5.71	0
138	5915	5.81	0
138	6042	5.91	0
138	6177	6.01	0
138	6304	6.11	0
138	6431	6.21	0
138	6558	6.31	0
138	6685	6.41	0
138	6812	6.51	0
138	6939	6.61	0
138	7066	6.71	0
138	7193	6.81	0
138	7320	6.91	0
138	7455	7.01	0
138	7582	7.11	0
138	7709	7.21	0
138	7836	7.31	0
138	7963	7.41	0
138	8090	7.51	0
138	8217	7.61	0
138	8344	7.71	0
138	8471	7.81	0
138	8598	7.91	0
138	8733	8.01	0
138	8860	8.11	0
138	8987	8.21	0
138	9114	8.31	0
138	9241	8.41	0
138	9368	8.51	0
138	9495	8.61	0
138	9622	8.71	0
138	9749	8.81	0
138	9876	8.91	0
138	10011	9.01	0
138	10138	9.11	0
138	10265	9.21	0
138	10392	9.31	0
138	10519	9.41	0
138	10646	9.51	0
138	10773	9.61	0
138	10900	9.71	0
138	11027	9.81	0
138	11154	9.91	0
138	11289	10.01	0
138	11416	10.11	0
138	11543	10.21	0
138	11670	10.31	0
138	11706	10.33	0
139	249	1.11	0
139	368	1.21	0
139	486	1.31	0
139	605	1.41	0
139	724	1.51	0
139	842	1.61	0
139	960	1.71	0
139	1079	1.81	0
139	1197	1.91	0
139	1326	2.01	0
139	1444	2.11	0
139	1562	2.21	0
139	1680	2.31	0
139	1798	2.41	0
139	1916	2.51	0
139	2034	2.61	0
139	2152	2.71	0
139	2270	2.81	0
139	2388	2.91	0
139	2514	3.01	0
139	2632	3.11	0
139	2750	3.21	0
139	2868	3.31	0
139	2986	3.41	0
139	3104	3.51	0
139	3222	3.61	0
139	3340	3.71	0
139	3458	3.81	0
139	3576	3.91	0
139	3702	4.01	0
139	3820	4.11	0
139	3938	4.21	0
139	4056	4.31	0
139	4174	4.41	0
139	4292	4.51	0
139	4410	4.61	0
139	4528	4.71	0
139	4646	4.81	0
139	4764	4.91	0
139	4899	5.01	0
139	5026	5.11	0
139	5153	5.21	0
139	5280	5.31	0
139	5407	5.41	0
139	5534	5.51	0
139	5661	5.61	0
139	5788	5.71	0
139	5915	5.81	0
139	6042	5.91	0
139	6177	6.01	0
139	6304	6.11	0
139	6431	6.21	0
139	6558	6.31	0
139	6685	6.41	0
139	6812	6.51	0
139	6939	6.61	0
139	7066	6.71	0
139	7193	6.81	0
139	7320	6.91	0
139	7455	7.01	0
139	7582	7.11	0
139	7709	7.21	0
139	7836	7.31	0
139	7963	7.41	0
139	8090	7.51	0
139	8217	7.61	0
139	8344	7.71	0
139	8471	7.81	0
139	8598	7.91	0
139	8733	8.01	0
139	8860	8.11	0
139	8987	8.21	0
139	9114	8.31	0
139	9241	8.41	0
139	9368	8.51	0
139	9495	8.61	0
139	9622	8.71	0
139	9749	8.81	0
139	9876	8.91	0
139	10011	9.01	0
139	10138	9.11	0
139	10265	9.21	0
139	10392	9.31	0
139	10519	9.41	0
139	10646	9.51	0
139	10773	9.61	0
139	10900	9.71	0
139	11027	9.81	0
139	11154	9.91	0
139	11289	10.01	0
139	11416	10.11	0
139	11543	10.21	0
139	11670	10.31	0
139	11706	10.33	0
140	1294	2	1
140	2484	3	1
140	3672	4	1
140	4869	5	1
140	6138	6	1
140	7416	7	1
140	8694	8	1
140	9972	9	1
140	11250	10	1
141	1294	2	0.004473
141	2484	3	0.00497
141	3672	4	0.00497
141	4869	5	0.00497
141	6138	6	0.00497
141	7416	7	0.00497
141	8694	8	0.00497
141	9972	9	0.00497
141	11250	10	0.00497
142	1294	2	0
142	2484	3	0
142	3672	4	0
142	4869	5	0
142	6138	6	0
142	7416	7	0
142	8694	8	0
142	9972	9	0
142	11250	10	0
