version 2
run Sinusoidal-2-20170515-10:42:29-2428
attr beaconInterval 0.1
attr configname Sinusoidal
attr controller 1
attr datetime 20170515-10:42:29
attr experiment Sinusoidal
attr headway 0.1
attr inifile examples/platooning/omnetpp.ini
attr iterationvars "$nCars=3, $platoonSize=8, $nLanes=1, $nTrucks=3, $nBus=2, $ploegH=0.5, $controller=1, $sController=\"CACC\", $headway=0.1, $leaderHeadway=1.2, $leaderSpeed=100, $beaconInterval=0.1, $priority=2, $packetSize=200, $0=\"1,2,1,3,2,2,1,3\", $1=15, $2=0"
attr iterationvars2 "$nCars=3, $platoonSize=8, $nLanes=1, $nTrucks=3, $nBus=2, $ploegH=0.5, $controller=1, $sController=\"CACC\", $headway=0.1, $leaderHeadway=1.2, $leaderSpeed=100, $beaconInterval=0.1, $priority=2, $packetSize=200, $0=\"1,2,1,3,2,2,1,3\", $1=15, $2=0, $repetition=0"
attr leaderHeadway 1.2
attr leaderSpeed 100
attr measurement "$nCars=3, $platoonSize=8, $nLanes=1, $nTrucks=3, $nBus=2, $ploegH=0.5, $controller=1, $sController=\"CACC\", $headway=0.1, $leaderHeadway=1.2, $leaderSpeed=100, $beaconInterval=0.1, $priority=2, $packetSize=200, $0=\"1,2,1,3,2,2,1,3\", $1=15, $2=0"
attr nBus 2
attr nCars 3
attr nLanes 1
attr nTrucks 3
attr network scenario
attr packetSize 200
attr platoonSize 8
attr ploegH 0.5
attr priority 2
attr processid 2428
attr repetition 0
attr replication #0
attr resultdir results
attr runnumber 2
attr sController "\"CACC\""
attr seedset 0
param **.coreDebug false
param **.debug false
param **.headway "${headway = 0.3, 1.2, 0.1, 0.1, 0.1 ! controller}s"
param **.numberOfBus "${nBus = 2}"
param **.numberOfCars "${nCars = 3}"
param **.numberOfCarsPerPlatoon "${platoonSize = 8}"
param **.numberOfLanes "${nLanes = 1}"
param **.numberOfTrucks "${nTrucks = 3}"
param **.numericController "${controller = 0, 0, 1, 2, 3}"
param **.seed ${repetition}
param **.traffic.nBus ${nBus}
param **.traffic.nCars ${nCars}
param **.traffic.nLanes ${nLanes}
param **.traffic.nTrucks ${nTrucks}
param **.traffic.platoonInsertDistance "${2, 2, 15, 2, 15 ! controller}m"
param **.traffic.platoonInsertHeadway "${0.3, 1.2, 0, 0.5, 0.8 ! controller}s"
param **.traffic.platoonInsertSpeed ${leaderSpeed}kmph
param **.traffic.platoonInsertTime "1 s"
param **.traffic.platoonLeaderHeadway ${leaderHeadway}s
param **.traffic.platoonSize ${platoonSize}
param **.traffic.platooningVType "\"vtypeauto\""
param **.traffic.platooningVTypeBus "\"vtypebus\""
param **.traffic.platooningVTypeTruck "\"vtypeheter\""
param **.traffic.vehicleTypeInPlatoon "${\"1,2,1,3,2,2,1,3\"}"
param **.traffic_type "\"SimpleHeterogenous\""
param *.**.nic.mac1609_4.bitrate 6Mbps
param *.**.nic.mac1609_4.txPower 100mW
param *.**.nic.mac1609_4.useServiceChannel false
param *.**.nic.phy80211p.analogueModels "xmldoc(\"/home/hh-ide/src/plexe-veins/examples/platooning/config.xml\")"
param *.**.nic.phy80211p.decider "xmldoc(\"/home/hh-ide/src/plexe-veins/examples/platooning/config.xml\")"
param *.**.nic.phy80211p.maxTXPower 100mW
param *.**.nic.phy80211p.sensitivity -94dBm
param *.**.nic.phy80211p.thermalNoise -95dBm
param *.**.nic.phy80211p.usePropagationDelay true
param *.**.nic.phy80211p.useThermalNoise true
param *.annotations.draw false
param *.connectionManager.alpha 2.0
param *.connectionManager.carrierFrequency "5.890e9 Hz"
param *.connectionManager.maxInterfDist 0
param *.connectionManager.pMax 100mW
param *.connectionManager.sat -94dBm
param *.connectionManager.sendDirect true
param *.manager.autoShutdown true
param *.manager.commandLine "\"sumo-gui --remote-port $port --seed $seed --configuration-file $configFile\""
param *.manager.configFile "\"/home/hh-ide/src/plexe-veins/examples/platooning/sumocfg/freeway.sumo.cfg\""
param *.manager.host "\"localhost\""
param *.manager.margin 25
param *.manager.moduleDisplayString "\"\""
param *.manager.moduleName "\"node\""
param *.manager.moduleType "\"Car\""
param *.manager.updateInterval 0.01s
param *.node[*].appl.simulationDuration "60 s"
param *.node[*].appl_type "\"SimplePlatooningApp\""
param *.node[*].helper.nBus ${nBus}
param *.node[*].helper.nCars ${nCars}
param *.node[*].helper.nLanes ${nLanes}
param *.node[*].helper.nTrucks ${nTrucks}
param *.node[*].helper.platoonSize ${platoonSize}
param *.node[*].helper_type "\"PositionHelper\""
param *.node[*].mobility.x 0
param *.node[*].mobility.y 0
param *.node[*].mobility.z 1.895
param *.node[*].prot.beaconingInterval "${beaconInterval = 0.1}s"
param *.node[*].prot.packetSize "${packetSize = 200}"
param *.node[*].prot.priority "${priority = 2}"
param *.node[*].prot.useControllerAcceleration true
param *.node[*].protocol_type "\"SimplePlatooningBeaconing\""
param *.node[*].scenario.accHeadway ${headway}s
param *.node[*].scenario.caccC1 0.5
param *.node[*].scenario.caccOmegaN "0.2 Hz"
param *.node[*].scenario.caccXi 1
param *.node[*].scenario.controller "${sController = \"ACC\", \"ACC\", \"CACC\", \"PLOEG\", \"CONSENSUS\" ! controller}"
param *.node[*].scenario.engineTau "0.5 s"
param *.node[*].scenario.leaderHeadway "${leaderHeadway = 1.2}s"
param *.node[*].scenario.leaderOscillationFrequency "0.2 Hz"
param *.node[*].scenario.leaderSpeed "${leaderSpeed = 100}kmph"
param *.node[*].scenario.oscillationAmplitude "10 kmph"
param *.node[*].scenario.ploegH "${ploegH = 0.5}s"
param *.node[*].scenario.ploegKd 0.7
param *.node[*].scenario.ploegKp 0.2
param *.node[*].scenario.startOscillating "5 s"
param *.node[*].scenario.useRealisticEngine false
param *.node[*].scenario_type "\"SinusoidalScenario\""
param *.node[*].unicast.packetLossRate 0
param *.obstacles.debug false
param *.playgroundSizeX 65000m
param *.playgroundSizeY 25000m
param *.playgroundSizeZ 50m
param *.world.use2D false
param *.world.useTorus false

vector 0  scenario.node[0].appl  distance  ETV
vector 1  scenario.node[0].appl  relativeSpeed  ETV
vector 2  scenario.node[0].appl  nodeId  ETV
vector 6  scenario.node[0].appl  acceleration  ETV
vector 7  scenario.node[0].appl  controllerAcceleration  ETV
vector 3  scenario.node[0].appl  speed  ETV
vector 4  scenario.node[0].appl  posx  ETV
vector 5  scenario.node[0].appl  posy  ETV
vector 22  scenario.node[1].appl  distance  ETV
vector 23  scenario.node[1].appl  relativeSpeed  ETV
vector 24  scenario.node[1].appl  nodeId  ETV
vector 28  scenario.node[1].appl  acceleration  ETV
vector 29  scenario.node[1].appl  controllerAcceleration  ETV
vector 25  scenario.node[1].appl  speed  ETV
vector 26  scenario.node[1].appl  posx  ETV
vector 27  scenario.node[1].appl  posy  ETV
vector 44  scenario.node[2].appl  distance  ETV
vector 45  scenario.node[2].appl  relativeSpeed  ETV
vector 46  scenario.node[2].appl  nodeId  ETV
vector 50  scenario.node[2].appl  acceleration  ETV
vector 51  scenario.node[2].appl  controllerAcceleration  ETV
vector 47  scenario.node[2].appl  speed  ETV
vector 48  scenario.node[2].appl  posx  ETV
vector 49  scenario.node[2].appl  posy  ETV
vector 66  scenario.node[3].appl  distance  ETV
vector 67  scenario.node[3].appl  relativeSpeed  ETV
vector 68  scenario.node[3].appl  nodeId  ETV
vector 72  scenario.node[3].appl  acceleration  ETV
vector 73  scenario.node[3].appl  controllerAcceleration  ETV
vector 69  scenario.node[3].appl  speed  ETV
vector 70  scenario.node[3].appl  posx  ETV
vector 71  scenario.node[3].appl  posy  ETV
vector 88  scenario.node[4].appl  distance  ETV
vector 89  scenario.node[4].appl  relativeSpeed  ETV
vector 90  scenario.node[4].appl  nodeId  ETV
vector 94  scenario.node[4].appl  acceleration  ETV
vector 95  scenario.node[4].appl  controllerAcceleration  ETV
vector 91  scenario.node[4].appl  speed  ETV
vector 92  scenario.node[4].appl  posx  ETV
vector 93  scenario.node[4].appl  posy  ETV
vector 110  scenario.node[5].appl  distance  ETV
vector 111  scenario.node[5].appl  relativeSpeed  ETV
vector 112  scenario.node[5].appl  nodeId  ETV
vector 116  scenario.node[5].appl  acceleration  ETV
vector 117  scenario.node[5].appl  controllerAcceleration  ETV
vector 113  scenario.node[5].appl  speed  ETV
vector 114  scenario.node[5].appl  posx  ETV
vector 115  scenario.node[5].appl  posy  ETV
vector 132  scenario.node[6].appl  distance  ETV
vector 133  scenario.node[6].appl  relativeSpeed  ETV
vector 134  scenario.node[6].appl  nodeId  ETV
vector 138  scenario.node[6].appl  acceleration  ETV
vector 139  scenario.node[6].appl  controllerAcceleration  ETV
vector 135  scenario.node[6].appl  speed  ETV
vector 136  scenario.node[6].appl  posx  ETV
vector 137  scenario.node[6].appl  posy  ETV
vector 154  scenario.node[7].appl  distance  ETV
vector 155  scenario.node[7].appl  relativeSpeed  ETV
vector 156  scenario.node[7].appl  nodeId  ETV
vector 160  scenario.node[7].appl  acceleration  ETV
vector 161  scenario.node[7].appl  controllerAcceleration  ETV
vector 157  scenario.node[7].appl  speed  ETV
vector 158  scenario.node[7].appl  posx  ETV
vector 159  scenario.node[7].appl  posy  ETV
vector 8  scenario.node[0].prot  nodeId  ETV
vector 9  scenario.node[0].prot  busyTime  ETV
vector 10  scenario.node[0].prot  collisions  ETV
vector 30  scenario.node[1].prot  nodeId  ETV
vector 31  scenario.node[1].prot  busyTime  ETV
vector 32  scenario.node[1].prot  collisions  ETV
vector 52  scenario.node[2].prot  nodeId  ETV
vector 53  scenario.node[2].prot  busyTime  ETV
vector 54  scenario.node[2].prot  collisions  ETV
vector 74  scenario.node[3].prot  nodeId  ETV
vector 75  scenario.node[3].prot  busyTime  ETV
vector 76  scenario.node[3].prot  collisions  ETV
vector 96  scenario.node[4].prot  nodeId  ETV
vector 97  scenario.node[4].prot  busyTime  ETV
vector 98  scenario.node[4].prot  collisions  ETV
vector 118  scenario.node[5].prot  nodeId  ETV
vector 119  scenario.node[5].prot  busyTime  ETV
vector 120  scenario.node[5].prot  collisions  ETV
vector 140  scenario.node[6].prot  nodeId  ETV
vector 141  scenario.node[6].prot  busyTime  ETV
vector 142  scenario.node[6].prot  collisions  ETV
vector 162  scenario.node[7].prot  nodeId  ETV
vector 163  scenario.node[7].prot  busyTime  ETV
vector 164  scenario.node[7].prot  collisions  ETV
7	248	1.11	-8.430731206488e-07
7	372	1.21	-8.247038785214e-07
7	495	1.31	-7.948429328053e-07
7	619	1.41	-7.5609037608615e-07
7	743	1.51	-7.1073863239235e-07
7	866	1.61	-6.6078666094427e-07
7	989	1.71	-6.079568990458e-07
7	1113	1.81	-5.5371389606762e-07
7	1236	1.91	-4.9928438983216e-07
7	1370	2.01	-4.4567811841034e-07
7	1493	2.11	-3.9370868165634e-07
7	1616	2.21	-3.4401411852514e-07
7	1739	2.31	-2.9707706872273e-07
7	1862	2.41	-2.5324398578164e-07
7	1985	2.51	-2.1274344064182e-07
7	2108	2.61	-1.7570315336002e-07
7	2231	2.71	-1.4216582755466e-07
7	2354	2.81	-1.1210364547765e-07
7	2477	2.91	-8.5431519636359e-08
7	2608	3.01	-6.2018816748832e-08
7	2731	3.11	-4.1699859565369e-08
7	2854	3.21	-2.4283316690799e-08
7	2977	3.31	-9.5601571103998e-09
7	3100	3.41	2.6894362292751e-09
7	3223	3.51	1.2690140493987e-08
7	3346	3.61	2.0666576006079e-08
7	3469	3.71	2.6839355626862e-08
7	3592	3.81	3.1421798496467e-08
7	3715	3.91	3.4617407607129e-08
7	3846	4.01	3.6617997523081e-08
7	3969	4.11	3.7602347902066e-08
7	4092	4.21	3.7735404134764e-08
7	4215	4.31	3.7167730226884e-08
7	4338	4.41	3.6035434192172e-08
7	4461	4.51	3.446024621212e-08
7	4584	4.61	3.2549973383311e-08
7	4707	4.71	3.0399071704323e-08
7	4830	4.81	2.8089345960325e-08
7	4953	4.91	2.5690727767369e-08
7	5096	5.01	2.326218861981e-08
7	5231	5.11	0.34814789186464
7	5366	5.21	0.68726937161622
7	5501	5.31	1.0064706311115
7	5636	5.41	1.2963311698934
7	5771	5.51	1.5
7	5906	5.61	1.5
7	6041	5.71	1.5
7	6176	5.81	1.5
7	6311	5.91	1.5
7	6454	6.01	1.5
7	6589	6.11	1.5
7	6724	6.21	1.5
7	6859	6.31	1.5
7	6994	6.41	1.5
7	7129	6.51	1.4919234148491
7	7264	6.61	1.226499329248
7	7399	6.71	0.92305384082895
7	7534	6.81	0.58908102066068
7	7669	6.91	0.2323562172788
7	7812	7.01	-0.13919559696193
7	7947	7.11	-0.51762846464532
7	8082	7.21	-0.89509993840359
7	8217	7.31	-1.2639902875456
7	8352	7.41	-1.5
7	8487	7.51	-1.5
7	8622	7.61	-1.5
7	8757	7.71	-1.5
7	8892	7.81	-1.5
7	9027	7.91	-1.5
7	9170	8.01	-1.5
7	9305	8.11	-1.5
7	9440	8.21	-1.5
7	9575	8.31	-1.5
7	9710	8.41	-1.5
7	9845	8.51	-1.5
7	9980	8.61	-1.5
7	10115	8.71	-1.5
7	10250	8.81	-1.5
7	10385	8.91	-1.5
7	10528	9.01	-1.5
7	10663	9.11	-1.5
7	10798	9.21	-1.5
7	10933	9.31	-1.5
7	11068	9.41	-1.5
7	11203	9.51	-1.1784535904302
7	11338	9.61	-0.73985166419522
7	11473	9.71	-0.29046662059022
7	11608	9.81	0.15868205669937
7	11743	9.91	0.59737147691163
7	11886	10.01	1.0162504341895
7	12021	10.11	1.4069035498921
7	12156	10.21	1.5
7	12291	10.31	1.5
7	12426	10.41	1.5
7	12561	10.51	1.5
7	12696	10.61	1.5
7	12831	10.71	1.5
7	12966	10.81	1.5
7	13101	10.91	1.5
7	13244	11.01	1.5
7	13379	11.11	1.5
7	13514	11.21	1.5
7	13649	11.31	1.5
7	13784	11.41	1.5
6	248	1.11	-1.2391545567425e-07
6	372	1.21	-2.514333630188e-07
6	495	1.31	-3.5153284727585e-07
6	619	1.41	-4.2734420446777e-07
6	743	1.51	-4.8187125401e-07
6	866	1.61	-5.1795971955926e-07
6	989	1.71	-5.3827413637464e-07
6	1113	1.81	-5.4528506154838e-07
6	1236	1.91	-5.4125663950799e-07
6	1370	2.01	-5.2824375984528e-07
6	1493	2.11	-5.080941889446e-07
6	1616	2.21	-4.8245141215375e-07
6	1739	2.31	-4.5276244975412e-07
6	1862	2.41	-4.202860282021e-07
6	1985	2.51	-3.8610643571246e-07
6	2108	2.61	-3.5114133822844e-07
6	2231	2.71	-3.1616025353287e-07
6	2354	2.81	-2.8179307776099e-07
6	2477	2.91	-2.4854536206931e-07
6	2608	3.01	-2.1681287876163e-07
6	2731	3.11	-1.8689298997288e-07
6	2854	3.21	-1.5899530581009e-07
6	2977	3.31	-1.3325838210676e-07
6	3100	3.41	-1.0975469422192e-07
6	3223	3.51	-8.8505203166278e-08
6	3346	3.61	-6.948575048682e-08
6	3469	3.71	-5.263665059374e-08
6	3592	3.81	-3.7870506730542e-08
6	3715	3.91	-2.5077895315917e-08
6	3846	4.01	-1.4133405557004e-08
6	3969	4.11	-4.9016790626411e-09
6	4092	4.21	2.7593927143243e-09
6	4215	4.31	8.9940499492513e-09
6	4338	4.41	1.3947598631603e-08
6	4461	4.51	1.7761081494427e-08
6	4584	4.61	2.0570567471623e-08
6	4707	4.71	2.2507151697937e-08
6	4830	4.81	2.3691626438449e-08
6	4953	4.91	2.4239099616352e-08
6	5096	5.01	2.4253310471067e-08
6	5231	5.11	0.0068264526728257
6	5366	5.21	0.074594836732089
6	5501	5.31	0.19005134681258
6	5636	5.41	0.34050272642077
6	5771	5.51	0.51301638947834
6	5906	5.61	0.6902545856434
6	6041	5.71	0.83572672600098
6	6176	5.81	0.95506454902292
6	6311	5.91	1.0529631292492
6	6454	6.01	1.133274063098
6	6589	6.11	1.1991570011418
6	6724	6.21	1.2532039573571
6	6859	6.31	1.2975412860019
6	6994	6.41	1.333913338177
6	7129	6.51	1.3635927249268
6	7264	6.61	1.3702053615898
6	7399	6.71	1.3272611926745
6	7534	6.81	1.2373810921854
6	7669	6.91	1.1040433755532
6	7812	7.01	0.93147092012096
6	7947	7.11	0.72451590565734
6	8082	7.21	0.48854318346834
6	8217	7.31	0.2293132962599
6	8352	7.41	-0.044839398398011
6	8487	7.51	-0.30626147443016
6	8622	7.61	-0.52071863005345
6	8757	7.71	-0.69664819306503
6	8892	7.81	-0.84097171097959
6	9027	7.91	-0.95936726353223
6	9170	8.01	-1.0564928537818
6	9305	8.11	-1.1361696666178
6	9440	8.21	-1.2015324045674
6	9575	8.31	-1.2551526155189
6	9710	8.41	-1.2991398644115
6	9845	8.51	-1.3352247292573
6	9980	8.61	-1.3648268867847
6	10115	8.71	-1.3891109663845
6	10250	8.81	-1.4090323697992
6	10385	8.91	-1.4253748592211
6	10528	9.01	-1.4387813926344
6	10663	9.11	-1.4497794195275
6	10798	9.21	-1.4588016321909
6	10933	9.31	-1.4662029890104
6	11068	9.41	-1.4722746794938
6	11203	9.51	-1.4696249146823
6	11338	9.61	-1.3967850639141
6	11473	9.71	-1.2587757641274
6	11608	9.81	-1.0660952217858
6	11743	9.91	-0.82923335017639
6	11886	10.01	-0.55852907832801
6	12021	10.11	-0.26404116068406
6	12156	10.21	0.03943269874469
6	12291	10.31	0.30182609756224
6	12426	10.41	0.51708007617997
6	12561	10.51	0.69366331158065
6	12696	10.61	0.83852306852847
6	12831	10.71	0.95735852386056
6	12966	10.81	1.0548449876072
6	13101	10.91	1.1348178424026
6	13244	11.01	1.2004234378704
6	13379	11.11	1.2542428765748
6	13514	11.21	1.2983935616166
6	13649	11.31	1.3346125010283
6	13784	11.41	1.3643246463978
5	248	1.11	36.55
5	372	1.21	36.55
5	495	1.31	36.55
5	619	1.41	36.55
5	743	1.51	36.55
5	866	1.61	36.55
5	989	1.71	36.55
5	1113	1.81	36.55
5	1236	1.91	36.55
5	1370	2.01	36.55
5	1493	2.11	36.55
5	1616	2.21	36.55
5	1739	2.31	36.55
5	1862	2.41	36.55
5	1985	2.51	36.55
5	2108	2.61	36.55
5	2231	2.71	36.55
5	2354	2.81	36.55
5	2477	2.91	36.55
5	2608	3.01	36.55
5	2731	3.11	36.55
5	2854	3.21	36.55
5	2977	3.31	36.55
5	3100	3.41	36.55
5	3223	3.51	36.55
5	3346	3.61	36.55
5	3469	3.71	36.55
5	3592	3.81	36.55
5	3715	3.91	36.55
5	3846	4.01	36.55
5	3969	4.11	36.55
5	4092	4.21	36.55
5	4215	4.31	36.55
5	4338	4.41	36.55
5	4461	4.51	36.55
5	4584	4.61	36.55
5	4707	4.71	36.55
5	4830	4.81	36.55
5	4953	4.91	36.55
5	5096	5.01	36.55
5	5231	5.11	36.55
5	5366	5.21	36.55
5	5501	5.31	36.55
5	5636	5.41	36.55
5	5771	5.51	36.55
5	5906	5.61	36.55
5	6041	5.71	36.55
5	6176	5.81	36.55
5	6311	5.91	36.55
5	6454	6.01	36.55
5	6589	6.11	36.55
5	6724	6.21	36.55
5	6859	6.31	36.55
5	6994	6.41	36.55
5	7129	6.51	36.55
5	7264	6.61	36.55
5	7399	6.71	36.55
5	7534	6.81	36.55
5	7669	6.91	36.55
5	7812	7.01	36.55
5	7947	7.11	36.55
5	8082	7.21	36.55
5	8217	7.31	36.55
5	8352	7.41	36.55
5	8487	7.51	36.55
5	8622	7.61	36.55
5	8757	7.71	36.55
5	8892	7.81	36.55
5	9027	7.91	36.55
5	9170	8.01	36.55
5	9305	8.11	36.55
5	9440	8.21	36.55
5	9575	8.31	36.55
5	9710	8.41	36.55
5	9845	8.51	36.55
5	9980	8.61	36.55
5	10115	8.71	36.55
5	10250	8.81	36.55
5	10385	8.91	36.55
5	10528	9.01	36.55
5	10663	9.11	36.55
5	10798	9.21	36.55
5	10933	9.31	36.55
5	11068	9.41	36.55
5	11203	9.51	36.55
5	11338	9.61	36.55
5	11473	9.71	36.55
5	11608	9.81	36.55
5	11743	9.91	36.55
5	11886	10.01	36.55
5	12021	10.11	36.55
5	12156	10.21	36.55
5	12291	10.31	36.55
5	12426	10.41	36.55
5	12561	10.51	36.55
5	12696	10.61	36.55
5	12831	10.71	36.55
5	12966	10.81	36.55
5	13101	10.91	36.55
5	13244	11.01	36.55
5	13379	11.11	36.55
5	13514	11.21	36.55
5	13649	11.31	36.55
5	13784	11.41	36.55
4	248	1.11	176.21764297459
4	372	1.21	178.99542083538
4	495	1.31	181.77319869345
4	619	1.41	184.55097654785
4	743	1.51	187.32875439787
4	866	1.61	190.106532243
4	989	1.71	192.88431008291
4	1113	1.81	195.66208791742
4	1236	1.91	198.43986574648
4	1370	2.01	201.21764357016
4	1493	2.11	203.9954213886
4	1616	2.21	206.773199202
4	1739	2.31	209.55097701064
4	1862	2.41	212.32875481482
4	1985	2.51	215.10653261486
4	2108	2.61	217.88431041112
4	2231	2.71	220.66208820393
4	2354	2.81	223.43986599364
4	2477	2.91	226.21764378061
4	2608	3.01	228.99542156516
4	2731	3.11	231.77319934759
4	2854	3.21	234.55097712822
4	2977	3.31	237.3287549073
4	3100	3.41	240.1065326851
4	3223	3.51	242.88431046185
4	3346	3.61	245.66208823775
4	3469	3.71	248.43986601299
4	3592	3.81	251.21764378773
4	3715	3.91	253.99542156211
4	3846	4.01	256.77319933627
4	3969	4.11	259.55097711031
4	4092	4.21	262.32875488431
4	4215	4.31	265.10653265835
4	4338	4.41	267.8843104325
4	4461	4.51	270.66208820679
4	4584	4.61	273.43986598126
4	4707	4.71	276.21764375594
4	4830	4.81	278.99542153085
4	4953	4.91	281.773199306
4	5096	5.01	284.55097708139
4	5231	5.11	287.32875622231
4	5366	5.21	290.10676186517
4	5501	5.31	292.88576760165
4	5636	5.41	295.66699805937
4	5771	5.51	298.45200322204
4	5906	5.61	301.24251795207
4	6041	5.71	304.04022773395
4	6176	5.81	306.84653460807
4	6311	5.91	309.66258886772
4	6454	6.01	312.489334154
4	6589	6.11	315.3275445813
4	6724	6.21	318.17785519306
4	6859	6.31	321.04078694607
4	6994	6.41	323.91676720634
4	7129	6.51	326.80614653119
4	7264	6.61	329.70918267053
4	7399	6.71	332.62582919141
4	7534	6.81	335.55555957731
4	7669	6.91	338.49738505188
4	7812	7.01	341.44989090231
4	7947	7.11	344.41128001412
4	8082	7.21	347.37942246134
4	8217	7.31	350.35190998463
4	8352	7.41	353.32611464703
4	8487	7.51	356.2993235213
4	8622	7.61	359.26903880106
4	8757	7.71	362.23319334101
4	8892	7.81	365.19009136201
4	9027	7.91	368.13834173453
4	9170	8.01	371.07680324781
4	9305	8.11	374.00453971155
4	9440	8.21	376.92078312365
4	9575	8.31	379.82490345485
4	9710	8.41	382.71638386177
4	9845	8.51	385.59480035277
4	9980	8.61	388.45980510706
4	10115	8.71	391.31111279045
4	10250	8.81	394.14848932951
4	10385	8.91	396.97174270249
4	10528	9.01	399.78071538469
4	10663	9.11	402.575278151
4	10798	9.21	405.35532499178
4	10933	9.31	408.12076894225
4	11068	9.41	410.87153866098
4	11203	9.51	413.60757788594
4	11338	9.61	416.32908191752
4	11473	9.71	419.03691207704
4	11608	9.81	421.7325601269
4	11743	9.91	424.41804318015
4	11886	10.01	427.09579907629
4	12021	10.11	429.76858353216
4	12156	10.21	432.43936930701
4	12291	10.31	435.11108461477
4	12426	10.41	437.78625076459
4	12561	10.51	440.46694258231
4	12696	10.61	443.15486214781
4	12831	10.71	445.85140575942
4	12966	10.81	448.55771886809
4	13101	10.91	451.27474114256
4	13244	11.01	454.0032434385
4	13379	11.11	456.74385812604
4	13514	11.21	459.49710396892
4	13649	11.31	462.26340653413
4	13784	11.41	465.04311493479
3	248	1.11	27.777778619612
3	372	1.21	27.777778599967
3	495	1.31	27.777778569105
3	619	1.41	27.777778529595
3	743	1.51	27.777778483698
3	866	1.61	27.777778433385
3	989	1.71	27.777778380352
3	1113	1.81	27.777778326039
3	1236	1.91	27.77777827165
3	1370	2.01	27.777778218173
3	1493	2.11	27.777778166406
3	1616	2.21	27.777778116967
3	1739	2.31	27.777778070327
3	1862	2.41	27.777778026819
3	1985	2.51	27.77777798666
3	2108	2.61	27.77777794997
3	2231	2.71	27.777777916782
3	2354	2.81	27.777777887063
3	2477	2.91	27.777777860724
3	2608	3.01	27.777777837628
3	2731	3.11	27.777777817609
3	2854	3.21	27.777777800471
3	2977	3.31	27.777777786005
3	3100	3.41	27.777777773991
3	3223	3.51	27.777777764203
3	3346	3.61	27.777777756416
3	3469	3.71	27.777777750412
3	3592	3.81	27.777777745977
3	3715	3.91	27.77777774291
3	3846	4.01	27.777777741018
3	3969	4.11	27.777777740126
3	4092	4.21	27.77777774007
3	4215	4.31	27.7777777407
3	4338	4.41	27.777777741882
3	4461	4.51	27.777777743495
3	4584	4.61	27.777777745434
3	4707	4.71	27.777777747604
3	4830	4.81	27.777777749925
3	4953	4.91	27.777777752329
3	5096	5.01	27.777777754758
3	5231	5.11	27.777846021452
3	5366	5.21	27.782059596653
3	5501	5.31	27.795775862036
3	5636	5.41	27.823056285431
3	5771	5.51	27.866721940626
3	5906	5.61	27.928063782047
3	6041	5.71	28.005327711868
3	6176	5.81	28.095658800357
3	6311	5.91	28.196709510244
3	6454	6.01	28.30655404332
3	6589	6.11	28.423612574297
3	6724	6.21	28.54658909619
3	6859	6.31	28.674420431867
3	6994	6.41	28.80623440578
3	7129	6.51	28.941313946553
3	7264	6.61	29.078388981218
3	7399	6.71	29.213351897492
3	7534	6.81	29.341385131305
3	7669	6.91	29.457981732945
3	7812	7.01	29.559024895864
3	7947	7.11	29.640856051762
3	8082	7.21	29.700331349918
3	8217	7.31	29.734866440411
3	8352	7.41	29.742492528104
3	8487	7.51	29.72320356612
3	8622	7.61	29.680432143932
3	8757	7.71	29.618396925437
3	8892	7.81	29.540558684394
3	9027	7.91	29.449756460671
3	9170	8.01	29.348319255796
3	9305	8.11	29.238157662213
3	9440	8.21	29.120839031188
3	9575	8.31	28.997649136664
3	9710	8.41	28.86964276111
3	9845	8.51	28.737685193533
3	9980	8.61	28.602486272297
3	10115	8.71	28.464628312097
3	10250	8.81	28.324589013804
3	10385	8.91	28.182760258515
3	10528	9.01	28.039463525222
3	10663	9.11	27.894962538668
3	10798	9.21	27.749473644999
3	10933	9.31	27.603174323409
3	11068	9.41	27.456210168651
3	11203	9.51	27.308798307138
3	11338	9.61	27.165456941051
3	11473	9.71	27.033088438825
3	11608	9.81	26.917629526736
3	11743	9.91	26.823966096352
3	11886	10.01	26.755942052805
3	12021	10.11	26.716381687291
3	12156	10.21	26.707072901132
3	12291	10.31	26.725876201723
3	12426	10.41	26.768249212414
3	12561	10.51	26.829957594714
3	12696	10.61	26.90752771624
3	12831	10.71	26.998109988574
3	12966	10.81	27.099366756701
3	13101	10.91	27.209380329303
3	13244	11.01	27.326577531569
3	13379	11.11	27.449667812217
3	13514	11.21	27.577592469696
3	13649	11.31	27.709482999991
3	13784	11.41	27.844626927306
1	248	1.11	0
1	372	1.21	0
1	495	1.31	0
1	619	1.41	0
1	743	1.51	0
1	866	1.61	0
1	989	1.71	0
1	1113	1.81	0
1	1236	1.91	0
1	1370	2.01	0
1	1493	2.11	0
1	1616	2.21	0
1	1739	2.31	0
1	1862	2.41	0
1	1985	2.51	0
1	2108	2.61	0
1	2231	2.71	0
1	2354	2.81	0
1	2477	2.91	0
1	2608	3.01	0
1	2731	3.11	0
1	2854	3.21	0
1	2977	3.31	0
1	3100	3.41	0
1	3223	3.51	0
1	3346	3.61	0
1	3469	3.71	0
1	3592	3.81	0
1	3715	3.91	0
1	3846	4.01	0
1	3969	4.11	0
1	4092	4.21	0
1	4215	4.31	0
1	4338	4.41	0
1	4461	4.51	0
1	4584	4.61	0
1	4707	4.71	0
1	4830	4.81	0
1	4953	4.91	0
1	5096	5.01	0
1	5231	5.11	0
1	5366	5.21	0
1	5501	5.31	0
1	5636	5.41	0
1	5771	5.51	0
1	5906	5.61	0
1	6041	5.71	0
1	6176	5.81	0
1	6311	5.91	0
1	6454	6.01	0
1	6589	6.11	0
1	6724	6.21	0
1	6859	6.31	0
1	6994	6.41	0
1	7129	6.51	0
1	7264	6.61	0
1	7399	6.71	0
1	7534	6.81	0
1	7669	6.91	0
1	7812	7.01	0
1	7947	7.11	0
1	8082	7.21	0
1	8217	7.31	0
1	8352	7.41	0
1	8487	7.51	0
1	8622	7.61	0
1	8757	7.71	0
1	8892	7.81	0
1	9027	7.91	0
1	9170	8.01	0
1	9305	8.11	0
1	9440	8.21	0
1	9575	8.31	0
1	9710	8.41	0
1	9845	8.51	0
1	9980	8.61	0
1	10115	8.71	0
1	10250	8.81	0
1	10385	8.91	0
1	10528	9.01	0
1	10663	9.11	0
1	10798	9.21	0
1	10933	9.31	0
1	11068	9.41	0
1	11203	9.51	0
1	11338	9.61	0
1	11473	9.71	0
1	11608	9.81	0
1	11743	9.91	0
1	11886	10.01	0
1	12021	10.11	0
1	12156	10.21	0
1	12291	10.31	0
1	12426	10.41	0
1	12561	10.51	0
1	12696	10.61	0
1	12831	10.71	0
1	12966	10.81	0
1	13101	10.91	0
1	13244	11.01	0
1	13379	11.11	0
1	13514	11.21	0
1	13649	11.31	0
1	13784	11.41	0
0	248	1.11	-1
0	372	1.21	-1
0	495	1.31	-1
0	619	1.41	-1
0	743	1.51	-1
0	866	1.61	-1
0	989	1.71	-1
0	1113	1.81	-1
0	1236	1.91	-1
0	1370	2.01	-1
0	1493	2.11	-1
0	1616	2.21	-1
0	1739	2.31	-1
0	1862	2.41	-1
0	1985	2.51	-1
0	2108	2.61	-1
0	2231	2.71	-1
0	2354	2.81	-1
0	2477	2.91	-1
0	2608	3.01	-1
0	2731	3.11	-1
0	2854	3.21	-1
0	2977	3.31	-1
0	3100	3.41	-1
0	3223	3.51	-1
0	3346	3.61	-1
0	3469	3.71	-1
0	3592	3.81	-1
0	3715	3.91	-1
0	3846	4.01	-1
0	3969	4.11	-1
0	4092	4.21	-1
0	4215	4.31	-1
0	4338	4.41	-1
0	4461	4.51	-1
0	4584	4.61	-1
0	4707	4.71	-1
0	4830	4.81	-1
0	4953	4.91	-1
0	5096	5.01	-1
0	5231	5.11	-1
0	5366	5.21	-1
0	5501	5.31	-1
0	5636	5.41	-1
0	5771	5.51	-1
0	5906	5.61	-1
0	6041	5.71	-1
0	6176	5.81	-1
0	6311	5.91	-1
0	6454	6.01	-1
0	6589	6.11	-1
0	6724	6.21	-1
0	6859	6.31	-1
0	6994	6.41	-1
0	7129	6.51	-1
0	7264	6.61	-1
0	7399	6.71	-1
0	7534	6.81	-1
0	7669	6.91	-1
0	7812	7.01	-1
0	7947	7.11	-1
0	8082	7.21	-1
0	8217	7.31	-1
0	8352	7.41	-1
0	8487	7.51	-1
0	8622	7.61	-1
0	8757	7.71	-1
0	8892	7.81	-1
0	9027	7.91	-1
0	9170	8.01	-1
0	9305	8.11	-1
0	9440	8.21	-1
0	9575	8.31	-1
0	9710	8.41	-1
0	9845	8.51	-1
0	9980	8.61	-1
0	10115	8.71	-1
0	10250	8.81	-1
0	10385	8.91	-1
0	10528	9.01	-1
0	10663	9.11	-1
0	10798	9.21	-1
0	10933	9.31	-1
0	11068	9.41	-1
0	11203	9.51	-1
0	11338	9.61	-1
0	11473	9.71	-1
0	11608	9.81	-1
0	11743	9.91	-1
0	11886	10.01	-1
0	12021	10.11	-1
0	12156	10.21	-1
0	12291	10.31	-1
0	12426	10.41	-1
0	12561	10.51	-1
0	12696	10.61	-1
0	12831	10.71	-1
0	12966	10.81	-1
0	13101	10.91	-1
0	13244	11.01	-1
0	13379	11.11	-1
0	13514	11.21	-1
0	13649	11.31	-1
0	13784	11.41	-1
2	248	1.11	0
2	372	1.21	0
2	495	1.31	0
2	619	1.41	0
2	743	1.51	0
2	866	1.61	0
2	989	1.71	0
2	1113	1.81	0
2	1236	1.91	0
2	1370	2.01	0
2	1493	2.11	0
2	1616	2.21	0
2	1739	2.31	0
2	1862	2.41	0
2	1985	2.51	0
2	2108	2.61	0
2	2231	2.71	0
2	2354	2.81	0
2	2477	2.91	0
2	2608	3.01	0
2	2731	3.11	0
2	2854	3.21	0
2	2977	3.31	0
2	3100	3.41	0
2	3223	3.51	0
2	3346	3.61	0
2	3469	3.71	0
2	3592	3.81	0
2	3715	3.91	0
2	3846	4.01	0
2	3969	4.11	0
2	4092	4.21	0
2	4215	4.31	0
2	4338	4.41	0
2	4461	4.51	0
2	4584	4.61	0
2	4707	4.71	0
2	4830	4.81	0
2	4953	4.91	0
2	5096	5.01	0
2	5231	5.11	0
2	5366	5.21	0
2	5501	5.31	0
2	5636	5.41	0
2	5771	5.51	0
2	5906	5.61	0
2	6041	5.71	0
2	6176	5.81	0
2	6311	5.91	0
2	6454	6.01	0
2	6589	6.11	0
2	6724	6.21	0
2	6859	6.31	0
2	6994	6.41	0
2	7129	6.51	0
2	7264	6.61	0
2	7399	6.71	0
2	7534	6.81	0
2	7669	6.91	0
2	7812	7.01	0
2	7947	7.11	0
2	8082	7.21	0
2	8217	7.31	0
2	8352	7.41	0
2	8487	7.51	0
2	8622	7.61	0
2	8757	7.71	0
2	8892	7.81	0
2	9027	7.91	0
2	9170	8.01	0
2	9305	8.11	0
2	9440	8.21	0
2	9575	8.31	0
2	9710	8.41	0
2	9845	8.51	0
2	9980	8.61	0
2	10115	8.71	0
2	10250	8.81	0
2	10385	8.91	0
2	10528	9.01	0
2	10663	9.11	0
2	10798	9.21	0
2	10933	9.31	0
2	11068	9.41	0
2	11203	9.51	0
2	11338	9.61	0
2	11473	9.71	0
2	11608	9.81	0
2	11743	9.91	0
2	11886	10.01	0
2	12021	10.11	0
2	12156	10.21	0
2	12291	10.31	0
2	12426	10.41	0
2	12561	10.51	0
2	12696	10.61	0
2	12831	10.71	0
2	12966	10.81	0
2	13101	10.91	0
2	13244	11.01	0
2	13379	11.11	0
2	13514	11.21	0
2	13649	11.31	0
2	13784	11.41	0
10	1338	2	0
10	2578	3	0
10	3816	4	0
10	5066	5	0
10	6412	6	0
10	7770	7	0
10	9128	8	0
10	10486	9	0
10	11844	10	0
10	13202	11	0
9	1338	2	0.004473
9	2578	3	0.00497
9	3816	4	0.00497
9	5066	5	0.00497
9	6412	6	0.00497
9	7770	7	0.00497
9	9128	8	0.00497
9	10486	9	0.00497
9	11844	10	0.00497
9	13202	11	0.00497
8	1338	2	0
8	2578	3	0
8	3816	4	0
8	5066	5	0
8	6412	6	0
8	7770	7	0
8	9128	8	0
8	10486	9	0
8	11844	10	0
8	13202	11	0
29	249	1.11	0
29	373	1.21	0
29	496	1.31	0
29	620	1.41	0
29	744	1.51	0
29	867	1.61	0
29	990	1.71	0
29	1114	1.81	0
29	1237	1.91	0
29	1371	2.01	0
29	1494	2.11	0
29	1617	2.21	0
29	1740	2.31	0
29	1863	2.41	0
29	1986	2.51	0
29	2109	2.61	0
29	2232	2.71	0
29	2355	2.81	0
29	2478	2.91	0
29	2609	3.01	0
29	2732	3.11	0
29	2855	3.21	0
29	2978	3.31	0
29	3101	3.41	0
29	3224	3.51	0
29	3347	3.61	0
29	3470	3.71	0
29	3593	3.81	0
29	3716	3.91	0
29	3847	4.01	0
29	3970	4.11	0
29	4093	4.21	0
29	4216	4.31	0
29	4339	4.41	0
29	4462	4.51	0
29	4585	4.61	0
29	4708	4.71	0
29	4831	4.81	0
29	4954	4.91	0
29	5097	5.01	0
29	5232	5.11	0
29	5367	5.21	0
29	5502	5.31	0
29	5637	5.41	0
29	5772	5.51	0
29	5907	5.61	0
29	6042	5.71	0
29	6177	5.81	0
29	6312	5.91	0
29	6455	6.01	0
29	6590	6.11	0
29	6725	6.21	0
29	6860	6.31	0
29	6995	6.41	0
29	7130	6.51	0
29	7265	6.61	0
29	7400	6.71	0
29	7535	6.81	0
29	7670	6.91	0
29	7813	7.01	0
29	7948	7.11	0
29	8083	7.21	0
29	8218	7.31	0
29	8353	7.41	0
29	8488	7.51	0
29	8623	7.61	0
29	8758	7.71	0
29	8893	7.81	0
29	9028	7.91	0
29	9171	8.01	0
29	9306	8.11	0
29	9441	8.21	0
29	9576	8.31	0
29	9711	8.41	0
29	9846	8.51	0
29	9981	8.61	0
29	10116	8.71	0
29	10251	8.81	0
29	10386	8.91	0
29	10529	9.01	0
29	10664	9.11	0
29	10799	9.21	0
29	10934	9.31	0
29	11069	9.41	0
29	11204	9.51	0
29	11339	9.61	0
29	11474	9.71	0
29	11609	9.81	0
29	11744	9.91	0
29	11887	10.01	0
29	12022	10.11	0
29	12157	10.21	0
29	12292	10.31	0
29	12427	10.41	0
29	12562	10.51	0
29	12697	10.61	0
29	12832	10.71	0
29	12967	10.81	0
29	13102	10.91	0
29	13245	11.01	0
29	13380	11.11	0
29	13515	11.21	0
29	13650	11.31	0
29	13785	11.41	0
28	249	1.11	0
28	373	1.21	0
28	496	1.31	0
28	620	1.41	0
28	744	1.51	0
28	867	1.61	0
28	990	1.71	0
28	1114	1.81	0
28	1237	1.91	0
28	1371	2.01	0
28	1494	2.11	0
28	1617	2.21	0
28	1740	2.31	0
28	1863	2.41	0
28	1986	2.51	0
28	2109	2.61	0
28	2232	2.71	0
28	2355	2.81	0
28	2478	2.91	0
28	2609	3.01	0
28	2732	3.11	0
28	2855	3.21	0
28	2978	3.31	0
28	3101	3.41	0
28	3224	3.51	0
28	3347	3.61	0
28	3470	3.71	0
28	3593	3.81	0
28	3716	3.91	0
28	3847	4.01	0
28	3970	4.11	0
28	4093	4.21	0
28	4216	4.31	0
28	4339	4.41	0
28	4462	4.51	0
28	4585	4.61	0
28	4708	4.71	0
28	4831	4.81	0
28	4954	4.91	0
28	5097	5.01	0
28	5232	5.11	0
28	5367	5.21	0
28	5502	5.31	0
28	5637	5.41	0
28	5772	5.51	0
28	5907	5.61	0
28	6042	5.71	0
28	6177	5.81	0
28	6312	5.91	0
28	6455	6.01	0
28	6590	6.11	0
28	6725	6.21	0
28	6860	6.31	0
28	6995	6.41	0
28	7130	6.51	0
28	7265	6.61	0
28	7400	6.71	0
28	7535	6.81	0
28	7670	6.91	0
28	7813	7.01	0
28	7948	7.11	0
28	8083	7.21	0
28	8218	7.31	0
28	8353	7.41	0
28	8488	7.51	0
28	8623	7.61	0
28	8758	7.71	0
28	8893	7.81	0
28	9028	7.91	0
28	9171	8.01	0
28	9306	8.11	0
28	9441	8.21	0
28	9576	8.31	0
28	9711	8.41	0
28	9846	8.51	0
28	9981	8.61	0
28	10116	8.71	0
28	10251	8.81	0
28	10386	8.91	0
28	10529	9.01	0
28	10664	9.11	0
28	10799	9.21	0
28	10934	9.31	0
28	11069	9.41	0
28	11204	9.51	0
28	11339	9.61	0
28	11474	9.71	0
28	11609	9.81	0
28	11744	9.91	0
28	11887	10.01	0
28	12022	10.11	0
28	12157	10.21	0
28	12292	10.31	0
28	12427	10.41	0
28	12562	10.51	0
28	12697	10.61	0
28	12832	10.71	0
28	12967	10.81	0
28	13102	10.91	0
28	13245	11.01	0
28	13380	11.11	0
28	13515	11.21	0
28	13650	11.31	0
28	13785	11.41	0
27	249	1.11	36.55
27	373	1.21	36.55
27	496	1.31	36.55
27	620	1.41	36.55
27	744	1.51	36.55
27	867	1.61	36.55
27	990	1.71	36.55
27	1114	1.81	36.55
27	1237	1.91	36.55
27	1371	2.01	36.55
27	1494	2.11	36.55
27	1617	2.21	36.55
27	1740	2.31	36.55
27	1863	2.41	36.55
27	1986	2.51	36.55
27	2109	2.61	36.55
27	2232	2.71	36.55
27	2355	2.81	36.55
27	2478	2.91	36.55
27	2609	3.01	36.55
27	2732	3.11	36.55
27	2855	3.21	36.55
27	2978	3.31	36.55
27	3101	3.41	36.55
27	3224	3.51	36.55
27	3347	3.61	36.55
27	3470	3.71	36.55
27	3593	3.81	36.55
27	3716	3.91	36.55
27	3847	4.01	36.55
27	3970	4.11	36.55
27	4093	4.21	36.55
27	4216	4.31	36.55
27	4339	4.41	36.55
27	4462	4.51	36.55
27	4585	4.61	36.55
27	4708	4.71	36.55
27	4831	4.81	36.55
27	4954	4.91	36.55
27	5097	5.01	36.55
27	5232	5.11	36.55
27	5367	5.21	36.55
27	5502	5.31	36.55
27	5637	5.41	36.55
27	5772	5.51	36.55
27	5907	5.61	36.55
27	6042	5.71	36.55
27	6177	5.81	36.55
27	6312	5.91	36.55
27	6455	6.01	36.55
27	6590	6.11	36.55
27	6725	6.21	36.55
27	6860	6.31	36.55
27	6995	6.41	36.55
27	7130	6.51	36.55
27	7265	6.61	36.55
27	7400	6.71	36.55
27	7535	6.81	36.55
27	7670	6.91	36.55
27	7813	7.01	36.55
27	7948	7.11	36.55
27	8083	7.21	36.55
27	8218	7.31	36.55
27	8353	7.41	36.55
27	8488	7.51	36.55
27	8623	7.61	36.55
27	8758	7.71	36.55
27	8893	7.81	36.55
27	9028	7.91	36.55
27	9171	8.01	36.55
27	9306	8.11	36.55
27	9441	8.21	36.55
27	9576	8.31	36.55
27	9711	8.41	36.55
27	9846	8.51	36.55
27	9981	8.61	36.55
27	10116	8.71	36.55
27	10251	8.81	36.55
27	10386	8.91	36.55
27	10529	9.01	36.55
27	10664	9.11	36.55
27	10799	9.21	36.55
27	10934	9.31	36.55
27	11069	9.41	36.55
27	11204	9.51	36.55
27	11339	9.61	36.55
27	11474	9.71	36.55
27	11609	9.81	36.55
27	11744	9.91	36.55
27	11887	10.01	36.55
27	12022	10.11	36.55
27	12157	10.21	36.55
27	12292	10.31	36.55
27	12427	10.41	36.55
27	12562	10.51	36.55
27	12697	10.61	36.55
27	12832	10.71	36.55
27	12967	10.81	36.55
27	13102	10.91	36.55
27	13245	11.01	36.55
27	13380	11.11	36.55
27	13515	11.21	36.55
27	13650	11.31	36.55
27	13785	11.41	36.55
26	249	1.11	136.21764297485
26	373	1.21	138.9954208374
26	496	1.31	141.77319869995
26	620	1.41	144.5509765625
26	744	1.51	147.32875442505
26	867	1.61	150.1065322876
26	990	1.71	152.88431015015
26	1114	1.81	155.6620880127
26	1237	1.91	158.43986587524
26	1371	2.01	161.21764373779
26	1494	2.11	163.99542160034
26	1617	2.21	166.77319946289
26	1740	2.31	169.55097732544
26	1863	2.41	172.32875518799
26	1986	2.51	175.10653305054
26	2109	2.61	177.88431091309
26	2232	2.71	180.66208877564
26	2355	2.81	183.43986663818
26	2478	2.91	186.21764450073
26	2609	3.01	188.99542236328
26	2732	3.11	191.77320022583
26	2855	3.21	194.55097808838
26	2978	3.31	197.32875595093
26	3101	3.41	200.10653381348
26	3224	3.51	202.88431167603
26	3347	3.61	205.66208953858
26	3470	3.71	208.43986740112
26	3593	3.81	211.21764526367
26	3716	3.91	213.99542312622
26	3847	4.01	216.77320098877
26	3970	4.11	219.55097885132
26	4093	4.21	222.32875671387
26	4216	4.31	225.10653457642
26	4339	4.41	227.88431243897
26	4462	4.51	230.66209030152
26	4585	4.61	233.43986816406
26	4708	4.71	236.21764602661
26	4831	4.81	238.99542388916
26	4954	4.91	241.77320175171
26	5097	5.01	244.55097961426
26	5232	5.11	247.32875747681
26	5367	5.21	250.10653533936
26	5502	5.31	252.88431320191
26	5637	5.41	255.66209106446
26	5772	5.51	258.439868927
26	5907	5.61	261.21764678955
26	6042	5.71	263.9954246521
26	6177	5.81	266.77320251465
26	6312	5.91	269.5509803772
26	6455	6.01	272.32875823975
26	6590	6.11	275.1065361023
26	6725	6.21	277.88431396485
26	6860	6.31	280.66209182739
26	6995	6.41	283.43986968994
26	7130	6.51	286.21764755249
26	7265	6.61	288.99542541504
26	7400	6.71	291.77320327759
26	7535	6.81	294.55098114014
26	7670	6.91	297.32875900269
26	7813	7.01	300.10653686524
26	7948	7.11	302.88431472779
26	8083	7.21	305.66209259033
26	8218	7.31	308.43987045288
26	8353	7.41	311.21764831543
26	8488	7.51	313.99542617798
26	8623	7.61	316.77320404053
26	8758	7.71	319.55098190308
26	8893	7.81	322.32875976563
26	9028	7.91	325.10653762818
26	9171	8.01	327.88431549073
26	9306	8.11	330.66209335327
26	9441	8.21	333.43987121582
26	9576	8.31	336.21764907837
26	9711	8.41	338.99542694092
26	9846	8.51	341.77320480347
26	9981	8.61	344.55098266602
26	10116	8.71	347.32876052857
26	10251	8.81	350.10653839112
26	10386	8.91	352.88431625367
26	10529	9.01	355.66209411621
26	10664	9.11	358.43987197876
26	10799	9.21	361.21764984131
26	10934	9.31	363.99542770386
26	11069	9.41	366.77320556641
26	11204	9.51	369.55098342896
26	11339	9.61	372.32876129151
26	11474	9.71	375.10653915406
26	11609	9.81	377.88431701661
26	11744	9.91	380.66209487915
26	11887	10.01	383.4398727417
26	12022	10.11	386.21765060425
26	12157	10.21	388.9954284668
26	12292	10.31	391.77320632935
26	12427	10.41	394.5509841919
26	12562	10.51	397.32876205445
26	12697	10.61	400.106539917
26	12832	10.71	402.88431777955
26	12967	10.81	405.66209564209
26	13102	10.91	408.43987350464
26	13245	11.01	411.21765136719
26	13380	11.11	413.99542922974
26	13515	11.21	416.77320709229
26	13650	11.31	419.55098495484
26	13785	11.41	422.32876281739
25	249	1.11	27.777778625488
25	373	1.21	27.777778625488
25	496	1.31	27.777778625488
25	620	1.41	27.777778625488
25	744	1.51	27.777778625488
25	867	1.61	27.777778625488
25	990	1.71	27.777778625488
25	1114	1.81	27.777778625488
25	1237	1.91	27.777778625488
25	1371	2.01	27.777778625488
25	1494	2.11	27.777778625488
25	1617	2.21	27.777778625488
25	1740	2.31	27.777778625488
25	1863	2.41	27.777778625488
25	1986	2.51	27.777778625488
25	2109	2.61	27.777778625488
25	2232	2.71	27.777778625488
25	2355	2.81	27.777778625488
25	2478	2.91	27.777778625488
25	2609	3.01	27.777778625488
25	2732	3.11	27.777778625488
25	2855	3.21	27.777778625488
25	2978	3.31	27.777778625488
25	3101	3.41	27.777778625488
25	3224	3.51	27.777778625488
25	3347	3.61	27.777778625488
25	3470	3.71	27.777778625488
25	3593	3.81	27.777778625488
25	3716	3.91	27.777778625488
25	3847	4.01	27.777778625488
25	3970	4.11	27.777778625488
25	4093	4.21	27.777778625488
25	4216	4.31	27.777778625488
25	4339	4.41	27.777778625488
25	4462	4.51	27.777778625488
25	4585	4.61	27.777778625488
25	4708	4.71	27.777778625488
25	4831	4.81	27.777778625488
25	4954	4.91	27.777778625488
25	5097	5.01	27.777778625488
25	5232	5.11	27.777778625488
25	5367	5.21	27.777778625488
25	5502	5.31	27.777778625488
25	5637	5.41	27.777778625488
25	5772	5.51	27.777778625488
25	5907	5.61	27.777778625488
25	6042	5.71	27.777778625488
25	6177	5.81	27.777778625488
25	6312	5.91	27.777778625488
25	6455	6.01	27.777778625488
25	6590	6.11	27.777778625488
25	6725	6.21	27.777778625488
25	6860	6.31	27.777778625488
25	6995	6.41	27.777778625488
25	7130	6.51	27.777778625488
25	7265	6.61	27.777778625488
25	7400	6.71	27.777778625488
25	7535	6.81	27.777778625488
25	7670	6.91	27.777778625488
25	7813	7.01	27.777778625488
25	7948	7.11	27.777778625488
25	8083	7.21	27.777778625488
25	8218	7.31	27.777778625488
25	8353	7.41	27.777778625488
25	8488	7.51	27.777778625488
25	8623	7.61	27.777778625488
25	8758	7.71	27.777778625488
25	8893	7.81	27.777778625488
25	9028	7.91	27.777778625488
25	9171	8.01	27.777778625488
25	9306	8.11	27.777778625488
25	9441	8.21	27.777778625488
25	9576	8.31	27.777778625488
25	9711	8.41	27.777778625488
25	9846	8.51	27.777778625488
25	9981	8.61	27.777778625488
25	10116	8.71	27.777778625488
25	10251	8.81	27.777778625488
25	10386	8.91	27.777778625488
25	10529	9.01	27.777778625488
25	10664	9.11	27.777778625488
25	10799	9.21	27.777778625488
25	10934	9.31	27.777778625488
25	11069	9.41	27.777778625488
25	11204	9.51	27.777778625488
25	11339	9.61	27.777778625488
25	11474	9.71	27.777778625488
25	11609	9.81	27.777778625488
25	11744	9.91	27.777778625488
25	11887	10.01	27.777778625488
25	12022	10.11	27.777778625488
25	12157	10.21	27.777778625488
25	12292	10.31	27.777778625488
25	12427	10.41	27.777778625488
25	12562	10.51	27.777778625488
25	12697	10.61	27.777778625488
25	12832	10.71	27.777778625488
25	12967	10.81	27.777778625488
25	13102	10.91	27.777778625488
25	13245	11.01	27.777778625488
25	13380	11.11	27.777778625488
25	13515	11.21	27.777778625488
25	13650	11.31	27.777778625488
25	13785	11.41	27.777778625488
23	249	1.11	-0.008814140739954
23	373	1.21	-0.043739062111229
23	496	1.31	-0.10055217908512
23	620	1.41	-0.17435873064701
23	744	1.51	-0.26084887377365
23	867	1.61	-0.35626258169665
23	990	1.71	-0.45735224095945
23	1114	1.81	-0.56134390786039
23	1237	1.91	-0.66589804045149
23	1371	2.01	-0.76907039025182
23	1494	2.11	-0.86927361810659
23	1617	2.21	-0.96524009088346
23	1740	2.31	-1.0559862195202
23	1863	2.41	-1.1407786137961
23	1986	2.51	-1.2191022544902
23	2109	2.61	-1.2906308186541
23	2232	2.71	-1.3551992378693
23	2355	2.81	-1.412778521876
23	2478	2.91	-1.4634528401213
23	2609	3.01	-1.5073988208886
23	2732	3.11	-1.5448670010231
23	2855	3.21	-1.5761653382147
23	2978	3.31	-1.6016446816783
23	3101	3.41	-1.6216860852993
23	3224	3.51	-1.636689839307
23	3347	3.61	-1.6470660917829
23	3470	3.71	-1.6532269293219
23	3593	3.81	-1.655579786487
23	3716	3.91	-1.6545220559454
23	3847	4.01	-1.6504367749703
23	3970	4.11	-1.6436892690185
23	4093	4.21	-1.6346246390678
23	4216	4.31	-1.6235659860585
23	4339	4.41	-1.6108132729161
23	4462	4.51	-1.5966427320497
23	4585	4.61	-1.5813067337598
23	4708	4.71	-1.5650340385123
23	4831	4.81	-1.5480303634402
23	4954	4.91	-1.5304792006173
23	5097	5.01	-1.5125428315485
23	5232	5.11	-1.494363488879
23	5367	5.21	-1.4760594291645
23	5502	5.31	-1.4576761791698
23	5637	5.41	-1.4391193786887
23	5772	5.51	-1.4201174301903
23	5907	5.61	-1.4002124036069
23	6042	5.71	-1.3787789468952
23	6177	5.81	-1.3550819181408
23	6312	5.91	-1.3283478536885
23	6455	6.01	-1.2978191956677
23	6590	6.11	-1.2627925303492
23	6725	6.21	-1.2226441477548
23	6860	6.31	-1.1768456624007
23	6995	6.41	-1.1249719445054
23	7130	6.51	-1.0667032012688
23	7265	6.61	-1.0018231580353
23	7400	6.71	-0.93022531619692
23	7535	6.81	-0.85195087193165
23	7670	6.91	-0.76723431706991
23	7813	7.01	-0.67653482189535
23	7948	7.11	-0.58055308608023
23	8083	7.21	-0.48023485616896
23	8218	7.31	-0.37676247853151
23	8353	7.41	-0.27235056038427
23	8488	7.51	-0.17290153632617
23	8623	7.61	-0.085509134578619
23	8758	7.71	-0.01581915090706
23	8893	7.81	0.031910166868748
23	9028	7.91	0.054732816264227
23	9171	8.01	0.050927310929378
23	9306	8.11	0.021691799618125
23	9441	8.21	-0.029239257400793
23	9576	8.31	-0.097968218455836
23	9711	8.41	-0.18129765982827
23	9846	8.51	-0.27660458040641
23	9981	8.61	-0.38173720568775
23	10116	8.71	-0.49493033111743
23	10251	8.81	-0.61473587413996
23	10386	8.91	-0.73996590269282
23	10529	9.01	-0.86964589872823
23	10664	9.11	-1.0029764180224
23	10799	9.21	-1.138967186146
23	10934	9.31	-1.2734719850693
23	11069	9.41	-1.4009554784784
23	11204	9.51	-1.5163721319759
23	11339	9.61	-1.6152321194007
23	11474	9.71	-1.6936543663092
23	11609	9.81	-1.7513904032488
23	11744	9.91	-1.7920945857525
23	11887	10.01	-1.8194400016875
23	12022	10.11	-1.8362930031008
23	12157	10.21	-1.8447643571759
23	12292	10.31	-1.8462817894038
23	12427	10.41	-1.8417094057777
23	12562	10.51	-1.8314952685588
23	12697	10.61	-1.8158000691611
23	12832	10.71	-1.7945972090401
23	12967	10.81	-1.7677489891775
23	13102	10.91	-1.7350635701751
23	13245	11.01	-1.6963365478737
23	13380	11.11	-1.6513803096973
23	13515	11.21	-1.6000437713509
23	13650	11.31	-1.5422246228936
23	13785	11.41	-1.4778758216944
22	249	1.11	14.999717210263
22	373	1.21	14.997117281929
22	496	1.31	14.989778130274
22	620	1.41	14.975785109956
22	744	1.51	14.953680603938
22	867	1.61	14.922407438943
22	990	1.71	14.881255946193
22	1114	1.81	14.829814843488
22	1237	1.91	14.767926026661
22	1371	2.01	14.695643284172
22	1494	2.11	14.613194886902
22	1617	2.21	14.52094995477
22	1740	2.31	14.419388461512
22	1863	2.41	14.309074707677
22	1986	2.51	14.190634068576
22	2109	2.61	14.064732807458
22	2232	2.71	13.9320607338
22	2355	2.81	13.793316481271
22	2478	2.91	13.649195178935
22	2609	3.01	13.500378291883
22	2732	3.11	13.347525413022
22	2855	3.21	13.191267795651
22	2978	3.31	13.032203426183
22	3101	3.41	12.870893447464
22	3224	3.51	12.707859755222
22	3347	3.61	12.543583602824
22	3470	3.71	12.378505062554
22	3593	3.81	12.21302320467
22	3716	3.91	12.047496868435
22	3847	4.01	11.882245911933
22	3970	4.11	11.717552839625
22	4093	4.21	11.55366471824
22	4216	4.31	11.390795302539
22	4339	4.41	11.229127302775
22	4462	4.51	11.068814735222
22	4585	4.61	10.909985305937
22	4708	4.71	10.752742785968
22	4831	4.81	10.597169343499
22	4954	4.91	10.443327805017
22	5097	5.01	10.291263823432
22	5232	5.11	10.141007936263
22	5367	5.21	9.9925776380427
22	5502	5.31	9.8459819800459
22	5637	5.41	9.7012327165569
22	5772	5.51	9.5583606009447
22	5907	5.61	9.417433829934
22	6042	5.71	9.278575894908
22	6177	5.81	9.1419794831844
22	6312	5.91	9.0079134269752
22	6455	6.01	8.8767234060011
22	6590	6.11	8.7488281364489
22	6725	6.21	8.6247124582925
22	6860	6.31	8.5049184337362
22	6995	6.41	8.3900353232636
22	7130	6.51	8.2806891039849
22	7265	6.61	8.1775320199367
22	7400	6.71	8.0812320721041
22	7535	6.81	7.9924601999149
22	7670	6.91	7.9118729135079
22	7813	7.01	7.8400911138245
22	7948	7.11	7.7776765827207
22	8083	7.21	7.7251075319928
22	8218	7.31	7.6827544705708
22	8353	7.41	7.6508256369423
22	8488	7.51	7.6291296450381
22	8623	7.61	7.6167679481069
22	8758	7.71	7.6122126920653
22	8893	7.81	7.6134483207101
22	9028	7.91	7.6181063006384
22	9171	8.01	7.6235916127143
22	9306	8.11	7.6272735555386
22	9441	8.21	7.6268032712167
22	9576	8.31	7.620231938913
22	9711	8.41	7.6059608467678
22	9846	8.51	7.5826784942254
22	9981	8.61	7.5493089940346
22	10116	8.71	7.504969743918
22	10251	8.81	7.448936702598
22	10386	8.91	7.3806159040431
22	10529	9.01	7.2995200892294
22	10664	9.11	7.2052495360451
22	10799	9.21	7.0974858326112
22	10934	9.31	6.9761575951001
22	11069	9.41	6.8417215671167
22	11204	9.51	6.6951616797239
22	11339	9.61	6.5379363401166
22	11474	9.71	6.3719198387253
22	11609	9.81	6.1992210837859
22	11744	9.91	6.0217192018541
22	11887	10.01	5.8409085470689
22	12022	10.11	5.657960871902
22	12157	10.21	5.473803352461
22	12292	10.31	5.2891903929947
22	12427	10.41	5.1047658253593
22	12562	10.51	4.9211111317132
22	12697	10.61	4.7387797315171
22	12832	10.71	4.5583199954082
22	12967	10.81	4.3802896072547
22	13102	10.91	4.2052633997396
22	13245	11.01	4.033836368811
22	13380	11.11	3.8666232262523
22	13515	11.21	3.7042555650739
22	13650	11.31	3.5473774790595
22	13785	11.41	3.3966402870277
24	249	1.11	1
24	373	1.21	1
24	496	1.31	1
24	620	1.41	1
24	744	1.51	1
24	867	1.61	1
24	990	1.71	1
24	1114	1.81	1
24	1237	1.91	1
24	1371	2.01	1
24	1494	2.11	1
24	1617	2.21	1
24	1740	2.31	1
24	1863	2.41	1
24	1986	2.51	1
24	2109	2.61	1
24	2232	2.71	1
24	2355	2.81	1
24	2478	2.91	1
24	2609	3.01	1
24	2732	3.11	1
24	2855	3.21	1
24	2978	3.31	1
24	3101	3.41	1
24	3224	3.51	1
24	3347	3.61	1
24	3470	3.71	1
24	3593	3.81	1
24	3716	3.91	1
24	3847	4.01	1
24	3970	4.11	1
24	4093	4.21	1
24	4216	4.31	1
24	4339	4.41	1
24	4462	4.51	1
24	4585	4.61	1
24	4708	4.71	1
24	4831	4.81	1
24	4954	4.91	1
24	5097	5.01	1
24	5232	5.11	1
24	5367	5.21	1
24	5502	5.31	1
24	5637	5.41	1
24	5772	5.51	1
24	5907	5.61	1
24	6042	5.71	1
24	6177	5.81	1
24	6312	5.91	1
24	6455	6.01	1
24	6590	6.11	1
24	6725	6.21	1
24	6860	6.31	1
24	6995	6.41	1
24	7130	6.51	1
24	7265	6.61	1
24	7400	6.71	1
24	7535	6.81	1
24	7670	6.91	1
24	7813	7.01	1
24	7948	7.11	1
24	8083	7.21	1
24	8218	7.31	1
24	8353	7.41	1
24	8488	7.51	1
24	8623	7.61	1
24	8758	7.71	1
24	8893	7.81	1
24	9028	7.91	1
24	9171	8.01	1
24	9306	8.11	1
24	9441	8.21	1
24	9576	8.31	1
24	9711	8.41	1
24	9846	8.51	1
24	9981	8.61	1
24	10116	8.71	1
24	10251	8.81	1
24	10386	8.91	1
24	10529	9.01	1
24	10664	9.11	1
24	10799	9.21	1
24	10934	9.31	1
24	11069	9.41	1
24	11204	9.51	1
24	11339	9.61	1
24	11474	9.71	1
24	11609	9.81	1
24	11744	9.91	1
24	11887	10.01	1
24	12022	10.11	1
24	12157	10.21	1
24	12292	10.31	1
24	12427	10.41	1
24	12562	10.51	1
24	12697	10.61	1
24	12832	10.71	1
24	12967	10.81	1
24	13102	10.91	1
24	13245	11.01	1
24	13380	11.11	1
24	13515	11.21	1
24	13650	11.31	1
24	13785	11.41	1
32	1339	2	0
32	2579	3	0
32	3817	4	0
32	5067	5	0
32	6413	6	0
32	7771	7	0
32	9129	8	0
32	10487	9	0
32	11845	10	0
32	13203	11	0
31	1339	2	0.004473
31	2579	3	0.00497
31	3817	4	0.00497
31	5067	5	0.00497
31	6413	6	0.00497
31	7771	7	0.00497
31	9129	8	0.00497
31	10487	9	0.00497
31	11845	10	0.00497
31	13203	11	0.00497
30	1339	2	1
30	2579	3	1
30	3817	4	1
30	5067	5	1
30	6413	6	1
30	7771	7	1
30	9129	8	1
30	10487	9	1
30	11845	10	1
30	13203	11	1
51	250	1.11	0
51	374	1.21	0
51	497	1.31	0
51	621	1.41	0
51	745	1.51	0
51	868	1.61	0
51	991	1.71	0
51	1115	1.81	0
51	1238	1.91	0
51	1372	2.01	0
51	1495	2.11	0
51	1618	2.21	0
51	1741	2.31	0
51	1864	2.41	0
51	1987	2.51	0
51	2110	2.61	0
51	2233	2.71	0
51	2356	2.81	0
51	2479	2.91	0
51	2610	3.01	0
51	2733	3.11	0
51	2856	3.21	0
51	2979	3.31	0
51	3102	3.41	0
51	3225	3.51	0
51	3348	3.61	0
51	3471	3.71	0
51	3594	3.81	0
51	3717	3.91	0
51	3848	4.01	0
51	3971	4.11	0
51	4094	4.21	0
51	4217	4.31	0
51	4340	4.41	0
51	4463	4.51	0
51	4586	4.61	0
51	4709	4.71	0
51	4832	4.81	0
51	4955	4.91	0
51	5098	5.01	0
51	5233	5.11	0
51	5368	5.21	0
51	5503	5.31	0
51	5638	5.41	0
51	5773	5.51	0
51	5908	5.61	0
51	6043	5.71	0
51	6178	5.81	0
51	6313	5.91	0
51	6456	6.01	0
51	6591	6.11	0
51	6726	6.21	0
51	6861	6.31	0
51	6996	6.41	0
51	7131	6.51	0
51	7266	6.61	0
51	7401	6.71	0
51	7536	6.81	0
51	7671	6.91	0
51	7814	7.01	0
51	7949	7.11	0
51	8084	7.21	0
51	8219	7.31	0
51	8354	7.41	0
51	8489	7.51	0
51	8624	7.61	0
51	8759	7.71	0
51	8894	7.81	0
51	9029	7.91	0
51	9172	8.01	0
51	9307	8.11	0
51	9442	8.21	0
51	9577	8.31	0
51	9712	8.41	0
51	9847	8.51	0
51	9982	8.61	0
51	10117	8.71	0
51	10252	8.81	0
51	10387	8.91	0
51	10530	9.01	0
51	10665	9.11	0
51	10800	9.21	0
51	10935	9.31	0
51	11070	9.41	0
51	11205	9.51	0
51	11340	9.61	0
51	11475	9.71	0
51	11610	9.81	0
51	11745	9.91	0
51	11888	10.01	0
51	12023	10.11	0
51	12158	10.21	0
51	12293	10.31	0
51	12428	10.41	0
51	12563	10.51	0
51	12698	10.61	0
51	12833	10.71	0
51	12968	10.81	0
51	13103	10.91	0
51	13246	11.01	0
51	13381	11.11	0
51	13516	11.21	0
51	13651	11.31	0
51	13786	11.41	0
50	250	1.11	0
50	374	1.21	0
50	497	1.31	0
50	621	1.41	0
50	745	1.51	0
50	868	1.61	0
50	991	1.71	0
50	1115	1.81	0
50	1238	1.91	0
50	1372	2.01	0
50	1495	2.11	0
50	1618	2.21	0
50	1741	2.31	0
50	1864	2.41	0
50	1987	2.51	0
50	2110	2.61	0
50	2233	2.71	0
50	2356	2.81	0
50	2479	2.91	0
50	2610	3.01	0
50	2733	3.11	0
50	2856	3.21	0
50	2979	3.31	0
50	3102	3.41	0
50	3225	3.51	0
50	3348	3.61	0
50	3471	3.71	0
50	3594	3.81	0
50	3717	3.91	0
50	3848	4.01	0
50	3971	4.11	0
50	4094	4.21	0
50	4217	4.31	0
50	4340	4.41	0
50	4463	4.51	0
50	4586	4.61	0
50	4709	4.71	0
50	4832	4.81	0
50	4955	4.91	0
50	5098	5.01	0
50	5233	5.11	0
50	5368	5.21	0
50	5503	5.31	0
50	5638	5.41	0
50	5773	5.51	0
50	5908	5.61	0
50	6043	5.71	0
50	6178	5.81	0
50	6313	5.91	0
50	6456	6.01	0
50	6591	6.11	0
50	6726	6.21	0
50	6861	6.31	0
50	6996	6.41	0
50	7131	6.51	0
50	7266	6.61	0
50	7401	6.71	0
50	7536	6.81	0
50	7671	6.91	0
50	7814	7.01	0
50	7949	7.11	0
50	8084	7.21	0
50	8219	7.31	0
50	8354	7.41	0
50	8489	7.51	0
50	8624	7.61	0
50	8759	7.71	0
50	8894	7.81	0
50	9029	7.91	0
50	9172	8.01	0
50	9307	8.11	0
50	9442	8.21	0
50	9577	8.31	0
50	9712	8.41	0
50	9847	8.51	0
50	9982	8.61	0
50	10117	8.71	0
50	10252	8.81	0
50	10387	8.91	0
50	10530	9.01	0
50	10665	9.11	0
50	10800	9.21	0
50	10935	9.31	0
50	11070	9.41	0
50	11205	9.51	0
50	11340	9.61	0
50	11475	9.71	0
50	11610	9.81	0
50	11745	9.91	0
50	11888	10.01	0
50	12023	10.11	0
50	12158	10.21	0
50	12293	10.31	0
50	12428	10.41	0
50	12563	10.51	0
50	12698	10.61	0
50	12833	10.71	0
50	12968	10.81	0
50	13103	10.91	0
50	13246	11.01	0
50	13381	11.11	0
50	13516	11.21	0
50	13651	11.31	0
50	13786	11.41	0
49	250	1.11	36.55
49	374	1.21	36.55
49	497	1.31	36.55
49	621	1.41	36.55
49	745	1.51	36.55
49	868	1.61	36.55
49	991	1.71	36.55
49	1115	1.81	36.55
49	1238	1.91	36.55
49	1372	2.01	36.55
49	1495	2.11	36.55
49	1618	2.21	36.55
49	1741	2.31	36.55
49	1864	2.41	36.55
49	1987	2.51	36.55
49	2110	2.61	36.55
49	2233	2.71	36.55
49	2356	2.81	36.55
49	2479	2.91	36.55
49	2610	3.01	36.55
49	2733	3.11	36.55
49	2856	3.21	36.55
49	2979	3.31	36.55
49	3102	3.41	36.55
49	3225	3.51	36.55
49	3348	3.61	36.55
49	3471	3.71	36.55
49	3594	3.81	36.55
49	3717	3.91	36.55
49	3848	4.01	36.55
49	3971	4.11	36.55
49	4094	4.21	36.55
49	4217	4.31	36.55
49	4340	4.41	36.55
49	4463	4.51	36.55
49	4586	4.61	36.55
49	4709	4.71	36.55
49	4832	4.81	36.55
49	4955	4.91	36.55
49	5098	5.01	36.55
49	5233	5.11	36.55
49	5368	5.21	36.55
49	5503	5.31	36.55
49	5638	5.41	36.55
49	5773	5.51	36.55
49	5908	5.61	36.55
49	6043	5.71	36.55
49	6178	5.81	36.55
49	6313	5.91	36.55
49	6456	6.01	36.55
49	6591	6.11	36.55
49	6726	6.21	36.55
49	6861	6.31	36.55
49	6996	6.41	36.55
49	7131	6.51	36.55
49	7266	6.61	36.55
49	7401	6.71	36.55
49	7536	6.81	36.55
49	7671	6.91	36.55
49	7814	7.01	36.55
49	7949	7.11	36.55
49	8084	7.21	36.55
49	8219	7.31	36.55
49	8354	7.41	36.55
49	8489	7.51	36.55
49	8624	7.61	36.55
49	8759	7.71	36.55
49	8894	7.81	36.55
49	9029	7.91	36.55
49	9172	8.01	36.55
49	9307	8.11	36.55
49	9442	8.21	36.55
49	9577	8.31	36.55
49	9712	8.41	36.55
49	9847	8.51	36.55
49	9982	8.61	36.55
49	10117	8.71	36.55
49	10252	8.81	36.55
49	10387	8.91	36.55
49	10530	9.01	36.55
49	10665	9.11	36.55
49	10800	9.21	36.55
49	10935	9.31	36.55
49	11070	9.41	36.55
49	11205	9.51	36.55
49	11340	9.61	36.55
49	11475	9.71	36.55
49	11610	9.81	36.55
49	11745	9.91	36.55
49	11888	10.01	36.55
49	12023	10.11	36.55
49	12158	10.21	36.55
49	12293	10.31	36.55
49	12428	10.41	36.55
49	12563	10.51	36.55
49	12698	10.61	36.55
49	12833	10.71	36.55
49	12968	10.81	36.55
49	13103	10.91	36.55
49	13246	11.01	36.55
49	13381	11.11	36.55
49	13516	11.21	36.55
49	13651	11.31	36.55
49	13786	11.41	36.55
48	250	1.11	56.217641067505
48	374	1.21	58.995418930054
48	497	1.31	61.773196792603
48	621	1.41	64.550974655151
48	745	1.51	67.3287525177
48	868	1.61	70.106530380249
48	991	1.71	72.884308242798
48	1115	1.81	75.662086105347
48	1238	1.91	78.439863967895
48	1372	2.01	81.217641830444
48	1495	2.11	83.995419692993
48	1618	2.21	86.773197555542
48	1741	2.31	89.550975418091
48	1864	2.41	92.328753280639
48	1987	2.51	95.106531143188
48	2110	2.61	97.884309005737
48	2233	2.71	100.66208686829
48	2356	2.81	103.43986473083
48	2479	2.91	106.21764259338
48	2610	3.01	108.99542045593
48	2733	3.11	111.77319831848
48	2856	3.21	114.55097618103
48	2979	3.31	117.32875404358
48	3102	3.41	120.10653190613
48	3225	3.51	122.88430976868
48	3348	3.61	125.66208763123
48	3471	3.71	128.43986549377
48	3594	3.81	131.21764335632
48	3717	3.91	133.99542121887
48	3848	4.01	136.77319908142
48	3971	4.11	139.55097694397
48	4094	4.21	142.32875480652
48	4217	4.31	145.10653266907
48	4340	4.41	147.88431053162
48	4463	4.51	150.66208839417
48	4586	4.61	153.43986625671
48	4709	4.71	156.21764411926
48	4832	4.81	158.99542198181
48	4955	4.91	161.77319984436
48	5098	5.01	164.55097770691
48	5233	5.11	167.32875556946
48	5368	5.21	170.10653343201
48	5503	5.31	172.88431129456
48	5638	5.41	175.66208915711
48	5773	5.51	178.43986701965
48	5908	5.61	181.2176448822
48	6043	5.71	183.99542274475
48	6178	5.81	186.7732006073
48	6313	5.91	189.55097846985
48	6456	6.01	192.3287563324
48	6591	6.11	195.10653419495
48	6726	6.21	197.8843120575
48	6861	6.31	200.66208992005
48	6996	6.41	203.43986778259
48	7131	6.51	206.21764564514
48	7266	6.61	208.99542350769
48	7401	6.71	211.77320137024
48	7536	6.81	214.55097923279
48	7671	6.91	217.32875709534
48	7814	7.01	220.10653495789
48	7949	7.11	222.88431282044
48	8084	7.21	225.66209068299
48	8219	7.31	228.43986854553
48	8354	7.41	231.21764640808
48	8489	7.51	233.99542427063
48	8624	7.61	236.77320213318
48	8759	7.71	239.55097999573
48	8894	7.81	242.32875785828
48	9029	7.91	245.10653572083
48	9172	8.01	247.88431358338
48	9307	8.11	250.66209144593
48	9442	8.21	253.43986930847
48	9577	8.31	256.21764717102
48	9712	8.41	258.99542503357
48	9847	8.51	261.77320289612
48	9982	8.61	264.55098075867
48	10117	8.71	267.32875862122
48	10252	8.81	270.10653648377
48	10387	8.91	272.88431434632
48	10530	9.01	275.66209220887
48	10665	9.11	278.43987007141
48	10800	9.21	281.21764793396
48	10935	9.31	283.99542579651
48	11070	9.41	286.77320365906
48	11205	9.51	289.55098152161
48	11340	9.61	292.32875938416
48	11475	9.71	295.10653724671
48	11610	9.81	297.88431510926
48	11745	9.91	300.6620929718
48	11888	10.01	303.43987083435
48	12023	10.11	306.2176486969
48	12158	10.21	308.99542655945
48	12293	10.31	311.773204422
48	12428	10.41	314.55098228455
48	12563	10.51	317.3287601471
48	12698	10.61	320.10653800965
48	12833	10.71	322.8843158722
48	12968	10.81	325.66209373474
48	13103	10.91	328.43987159729
48	13246	11.01	331.21764945984
48	13381	11.11	333.99542732239
48	13516	11.21	336.77320518494
48	13651	11.31	339.55098304749
48	13786	11.41	342.32876091004
47	250	1.11	27.777778625488
47	374	1.21	27.777778625488
47	497	1.31	27.777778625488
47	621	1.41	27.777778625488
47	745	1.51	27.777778625488
47	868	1.61	27.777778625488
47	991	1.71	27.777778625488
47	1115	1.81	27.777778625488
47	1238	1.91	27.777778625488
47	1372	2.01	27.777778625488
47	1495	2.11	27.777778625488
47	1618	2.21	27.777778625488
47	1741	2.31	27.777778625488
47	1864	2.41	27.777778625488
47	1987	2.51	27.777778625488
47	2110	2.61	27.777778625488
47	2233	2.71	27.777778625488
47	2356	2.81	27.777778625488
47	2479	2.91	27.777778625488
47	2610	3.01	27.777778625488
47	2733	3.11	27.777778625488
47	2856	3.21	27.777778625488
47	2979	3.31	27.777778625488
47	3102	3.41	27.777778625488
47	3225	3.51	27.777778625488
47	3348	3.61	27.777778625488
47	3471	3.71	27.777778625488
47	3594	3.81	27.777778625488
47	3717	3.91	27.777778625488
47	3848	4.01	27.777778625488
47	3971	4.11	27.777778625488
47	4094	4.21	27.777778625488
47	4217	4.31	27.777778625488
47	4340	4.41	27.777778625488
47	4463	4.51	27.777778625488
47	4586	4.61	27.777778625488
47	4709	4.71	27.777778625488
47	4832	4.81	27.777778625488
47	4955	4.91	27.777778625488
47	5098	5.01	27.777778625488
47	5233	5.11	27.777778625488
47	5368	5.21	27.777778625488
47	5503	5.31	27.777778625488
47	5638	5.41	27.777778625488
47	5773	5.51	27.777778625488
47	5908	5.61	27.777778625488
47	6043	5.71	27.777778625488
47	6178	5.81	27.777778625488
47	6313	5.91	27.777778625488
47	6456	6.01	27.777778625488
47	6591	6.11	27.777778625488
47	6726	6.21	27.777778625488
47	6861	6.31	27.777778625488
47	6996	6.41	27.777778625488
47	7131	6.51	27.777778625488
47	7266	6.61	27.777778625488
47	7401	6.71	27.777778625488
47	7536	6.81	27.777778625488
47	7671	6.91	27.777778625488
47	7814	7.01	27.777778625488
47	7949	7.11	27.777778625488
47	8084	7.21	27.777778625488
47	8219	7.31	27.777778625488
47	8354	7.41	27.777778625488
47	8489	7.51	27.777778625488
47	8624	7.61	27.777778625488
47	8759	7.71	27.777778625488
47	8894	7.81	27.777778625488
47	9029	7.91	27.777778625488
47	9172	8.01	27.777778625488
47	9307	8.11	27.777778625488
47	9442	8.21	27.777778625488
47	9577	8.31	27.777778625488
47	9712	8.41	27.777778625488
47	9847	8.51	27.777778625488
47	9982	8.61	27.777778625488
47	10117	8.71	27.777778625488
47	10252	8.81	27.777778625488
47	10387	8.91	27.777778625488
47	10530	9.01	27.777778625488
47	10665	9.11	27.777778625488
47	10800	9.21	27.777778625488
47	10935	9.31	27.777778625488
47	11070	9.41	27.777778625488
47	11205	9.51	27.777778625488
47	11340	9.61	27.777778625488
47	11475	9.71	27.777778625488
47	11610	9.81	27.777778625488
47	11745	9.91	27.777778625488
47	11888	10.01	27.777778625488
47	12023	10.11	27.777778625488
47	12158	10.21	27.777778625488
47	12293	10.31	27.777778625488
47	12428	10.41	27.777778625488
47	12563	10.51	27.777778625488
47	12698	10.61	27.777778625488
47	12833	10.71	27.777778625488
47	12968	10.81	27.777778625488
47	13103	10.91	27.777778625488
47	13246	11.01	27.777778625488
47	13381	11.11	27.777778625488
47	13516	11.21	27.777778625488
47	13651	11.31	27.777778625488
47	13786	11.41	27.777778625488
45	250	1.11	0
45	374	1.21	0
45	497	1.31	0
45	621	1.41	0
45	745	1.51	0
45	868	1.61	0
45	991	1.71	0
45	1115	1.81	0
45	1238	1.91	0
45	1372	2.01	0
45	1495	2.11	0
45	1618	2.21	0
45	1741	2.31	0
45	1864	2.41	0
45	1987	2.51	0
45	2110	2.61	0
45	2233	2.71	0
45	2356	2.81	0
45	2479	2.91	0
45	2610	3.01	0
45	2733	3.11	0
45	2856	3.21	0
45	2979	3.31	0
45	3102	3.41	0
45	3225	3.51	0
45	3348	3.61	0
45	3471	3.71	0
45	3594	3.81	0
45	3717	3.91	0
45	3848	4.01	0
45	3971	4.11	0
45	4094	4.21	0
45	4217	4.31	0
45	4340	4.41	0
45	4463	4.51	0
45	4586	4.61	0
45	4709	4.71	0
45	4832	4.81	0
45	4955	4.91	0
45	5098	5.01	0
45	5233	5.11	0
45	5368	5.21	0
45	5503	5.31	0
45	5638	5.41	0
45	5773	5.51	0
45	5908	5.61	0
45	6043	5.71	0
45	6178	5.81	0
45	6313	5.91	0
45	6456	6.01	0
45	6591	6.11	0
45	6726	6.21	0
45	6861	6.31	0
45	6996	6.41	0
45	7131	6.51	0
45	7266	6.61	0
45	7401	6.71	0
45	7536	6.81	0
45	7671	6.91	0
45	7814	7.01	0
45	7949	7.11	0
45	8084	7.21	0
45	8219	7.31	0
45	8354	7.41	0
45	8489	7.51	0
45	8624	7.61	0
45	8759	7.71	0
45	8894	7.81	0
45	9029	7.91	0
45	9172	8.01	0
45	9307	8.11	0
45	9442	8.21	0
45	9577	8.31	0
45	9712	8.41	0
45	9847	8.51	0
45	9982	8.61	0
45	10117	8.71	0
45	10252	8.81	0
45	10387	8.91	0
45	10530	9.01	0
45	10665	9.11	0
45	10800	9.21	0
45	10935	9.31	0
45	11070	9.41	0
45	11205	9.51	0
45	11340	9.61	0
45	11475	9.71	0
45	11610	9.81	0
45	11745	9.91	0
45	11888	10.01	0
45	12023	10.11	0
45	12158	10.21	0
45	12293	10.31	0
45	12428	10.41	0
45	12563	10.51	0
45	12698	10.61	0
45	12833	10.71	0
45	12968	10.81	0
45	13103	10.91	0
45	13246	11.01	0
45	13381	11.11	0
45	13516	11.21	0
45	13651	11.31	0
45	13786	11.41	0
44	250	1.11	15.000001907349
44	374	1.21	15.000001907349
44	497	1.31	15.000001907349
44	621	1.41	15.000001907349
44	745	1.51	15.000001907349
44	868	1.61	15.000001907349
44	991	1.71	15.000001907349
44	1115	1.81	15.000001907349
44	1238	1.91	15.000001907349
44	1372	2.01	15.000001907349
44	1495	2.11	15.000001907349
44	1618	2.21	15.000001907349
44	1741	2.31	15.000001907349
44	1864	2.41	15.000001907349
44	1987	2.51	15.000001907349
44	2110	2.61	15.000001907349
44	2233	2.71	15.000001907349
44	2356	2.81	15.000001907349
44	2479	2.91	15.000001907349
44	2610	3.01	15.000001907349
44	2733	3.11	15.000001907349
44	2856	3.21	15.000001907349
44	2979	3.31	15.000001907349
44	3102	3.41	15.000001907349
44	3225	3.51	15.000001907349
44	3348	3.61	15.000001907349
44	3471	3.71	15.000001907349
44	3594	3.81	15.000001907349
44	3717	3.91	15.000001907349
44	3848	4.01	15.000001907349
44	3971	4.11	15.000001907349
44	4094	4.21	15.000001907349
44	4217	4.31	15.000001907349
44	4340	4.41	15.000001907349
44	4463	4.51	15.000001907349
44	4586	4.61	15.000001907349
44	4709	4.71	15.000001907349
44	4832	4.81	15.000001907349
44	4955	4.91	15.000001907349
44	5098	5.01	15.000001907349
44	5233	5.11	15.000001907349
44	5368	5.21	15.000001907349
44	5503	5.31	15.000001907349
44	5638	5.41	15.000001907349
44	5773	5.51	15.000001907349
44	5908	5.61	15.000001907349
44	6043	5.71	15.000001907349
44	6178	5.81	15.000001907349
44	6313	5.91	15.000001907349
44	6456	6.01	15.000001907349
44	6591	6.11	15.000001907349
44	6726	6.21	15.000001907349
44	6861	6.31	15.000001907349
44	6996	6.41	15.000001907349
44	7131	6.51	15.000001907349
44	7266	6.61	15.000001907349
44	7401	6.71	15.000001907349
44	7536	6.81	15.000001907349
44	7671	6.91	15.000001907349
44	7814	7.01	15.000001907349
44	7949	7.11	15.000001907349
44	8084	7.21	15.000001907349
44	8219	7.31	15.000001907349
44	8354	7.41	15.000001907349
44	8489	7.51	15.000001907349
44	8624	7.61	15.000001907349
44	8759	7.71	15.000001907349
44	8894	7.81	15.000001907349
44	9029	7.91	15.000001907349
44	9172	8.01	15.000001907349
44	9307	8.11	15.000001907349
44	9442	8.21	15.000001907349
44	9577	8.31	15.000001907349
44	9712	8.41	15.000001907349
44	9847	8.51	15.000001907349
44	9982	8.61	15.000001907349
44	10117	8.71	15.000001907349
44	10252	8.81	15.000001907349
44	10387	8.91	15.000001907349
44	10530	9.01	15.000001907349
44	10665	9.11	15.000001907349
44	10800	9.21	15.000001907349
44	10935	9.31	15.000001907349
44	11070	9.41	15.000001907349
44	11205	9.51	15.000001907349
44	11340	9.61	15.000001907349
44	11475	9.71	15.000001907349
44	11610	9.81	15.000001907349
44	11745	9.91	15.000001907349
44	11888	10.01	15.000001907349
44	12023	10.11	15.000001907349
44	12158	10.21	15.000001907349
44	12293	10.31	15.000001907349
44	12428	10.41	15.000001907349
44	12563	10.51	15.000001907349
44	12698	10.61	15.000001907349
44	12833	10.71	15.000001907349
44	12968	10.81	15.000001907349
44	13103	10.91	15.000001907349
44	13246	11.01	15.000001907349
44	13381	11.11	15.000001907349
44	13516	11.21	15.000001907349
44	13651	11.31	15.000001907349
44	13786	11.41	15.000001907349
46	250	1.11	2
46	374	1.21	2
46	497	1.31	2
46	621	1.41	2
46	745	1.51	2
46	868	1.61	2
46	991	1.71	2
46	1115	1.81	2
46	1238	1.91	2
46	1372	2.01	2
46	1495	2.11	2
46	1618	2.21	2
46	1741	2.31	2
46	1864	2.41	2
46	1987	2.51	2
46	2110	2.61	2
46	2233	2.71	2
46	2356	2.81	2
46	2479	2.91	2
46	2610	3.01	2
46	2733	3.11	2
46	2856	3.21	2
46	2979	3.31	2
46	3102	3.41	2
46	3225	3.51	2
46	3348	3.61	2
46	3471	3.71	2
46	3594	3.81	2
46	3717	3.91	2
46	3848	4.01	2
46	3971	4.11	2
46	4094	4.21	2
46	4217	4.31	2
46	4340	4.41	2
46	4463	4.51	2
46	4586	4.61	2
46	4709	4.71	2
46	4832	4.81	2
46	4955	4.91	2
46	5098	5.01	2
46	5233	5.11	2
46	5368	5.21	2
46	5503	5.31	2
46	5638	5.41	2
46	5773	5.51	2
46	5908	5.61	2
46	6043	5.71	2
46	6178	5.81	2
46	6313	5.91	2
46	6456	6.01	2
46	6591	6.11	2
46	6726	6.21	2
46	6861	6.31	2
46	6996	6.41	2
46	7131	6.51	2
46	7266	6.61	2
46	7401	6.71	2
46	7536	6.81	2
46	7671	6.91	2
46	7814	7.01	2
46	7949	7.11	2
46	8084	7.21	2
46	8219	7.31	2
46	8354	7.41	2
46	8489	7.51	2
46	8624	7.61	2
46	8759	7.71	2
46	8894	7.81	2
46	9029	7.91	2
46	9172	8.01	2
46	9307	8.11	2
46	9442	8.21	2
46	9577	8.31	2
46	9712	8.41	2
46	9847	8.51	2
46	9982	8.61	2
46	10117	8.71	2
46	10252	8.81	2
46	10387	8.91	2
46	10530	9.01	2
46	10665	9.11	2
46	10800	9.21	2
46	10935	9.31	2
46	11070	9.41	2
46	11205	9.51	2
46	11340	9.61	2
46	11475	9.71	2
46	11610	9.81	2
46	11745	9.91	2
46	11888	10.01	2
46	12023	10.11	2
46	12158	10.21	2
46	12293	10.31	2
46	12428	10.41	2
46	12563	10.51	2
46	12698	10.61	2
46	12833	10.71	2
46	12968	10.81	2
46	13103	10.91	2
46	13246	11.01	2
46	13381	11.11	2
46	13516	11.21	2
46	13651	11.31	2
46	13786	11.41	2
54	1340	2	0
54	2580	3	0
54	3818	4	0
54	5068	5	0
54	6414	6	0
54	7772	7	0
54	9130	8	0
54	10488	9	0
54	11846	10	0
54	13204	11	0
53	1340	2	0.004473
53	2580	3	0.00497
53	3818	4	0.00497
53	5068	5	0.00497
53	6414	6	0.00497
53	7772	7	0.00497
53	9130	8	0.00497
53	10488	9	0.00497
53	11846	10	0.00497
53	13204	11	0.00497
52	1340	2	2
52	2580	3	2
52	3818	4	2
52	5068	5	2
52	6414	6	2
52	7772	7	2
52	9130	8	2
52	10488	9	2
52	11846	10	2
52	13204	11	2
73	251	1.11	-1.6028610987172
73	375	1.21	-1.5700478448304
73	498	1.31	-1.5164106734315
73	622	1.41	-1.4463584747165
73	746	1.51	-1.3637923011715
73	869	1.61	-1.2721334137674
73	992	1.71	-1.1743537797332
73	1116	1.81	-1.0730081400238
73	1239	1.91	-0.97026689205845
73	1373	2.01	-0.86794915032853
73	1496	2.11	-0.76755545407463
73	1619	2.21	-0.67029968758845
73	1742	2.31	-0.57713986510383
73	1865	2.41	-0.4888075091003
73	1988	2.51	-0.40583541862549
73	2111	2.61	-0.32858368348214
73	2234	2.71	-0.25726385138828
73	2357	2.81	-0.19196119909792
73	2480	2.91	-0.13265509556565
73	2611	3.01	-0.079237476155369
73	2734	3.11	-0.031529472220111
73	2857	3.21	0.010703739305788
73	2980	3.31	0.047739785808576
73	3103	3.41	0.079887555981496
73	3226	3.51	0.10747716301147
73	3349	3.61	0.13085130758704
73	3472	3.71	0.15035793140578
73	3595	3.81	0.16634405107583
73	3718	3.91	0.17915066332273
73	3849	4.01	0.18910861490595
73	3972	4.11	0.19653533432882
73	4095	4.21	0.20173232703036
73	4218	4.31	0.20498334105137
73	4341	4.41	0.20655311596912
73	4464	4.51	0.20668663402056
73	4587	4.61	0.20560879863791
73	4710	4.71	0.20352447197342
73	4833	4.81	0.20061880929061
73	4956	4.91	0.19705783425818
73	5099	5.01	0.19298920513406
73	5234	5.11	0.18854312751309
73	5369	5.21	0.18383337469477
73	5504	5.31	0.17895838177656
73	5639	5.41	0.17400238427448
73	5774	5.51	0.16903657640472
73	5909	5.61	0.1641202681274
73	6044	5.71	0.15930202365461
73	6179	5.81	0.15462076737242
73	6314	5.91	0.15010684602803
73	6457	6.01	0.14578303860746
73	6592	6.11	0.14166550759009
73	6727	6.21	0.13776468723727
73	6862	6.31	0.13408610626876
73	6997	6.41	0.1306311437278
73	7132	6.51	0.12739771805209
73	7267	6.61	0.12438091037631
73	7402	6.71	0.1215735239105
73	7537	6.81	0.11896658189021
73	7672	6.91	0.11654976709586
73	7815	7.01	0.1143118063086
73	7950	7.11	0.11224080332675
73	8085	7.21	0.11032452432294
73	8220	7.31	0.10855063939576
73	8355	7.41	0.1069069241716
73	8490	7.51	0.1053814252558
73	8625	7.61	0.10396259322786
73	8760	7.71	0.10263938673304
73	8895	7.81	0.071189210033111
73	9030	7.91	-0.2550673516349
73	9173	8.01	-0.55619237013524
73	9308	8.11	-0.82269928290514
73	9443	8.21	-1.0469621821751
73	9578	8.31	-1.2231612840844
73	9713	8.41	-1.3472108712691
73	9848	8.51	-1.4166718154351
73	9983	8.61	-1.4306506414033
73	10118	8.71	-1.3896869774564
73	10253	8.81	-1.2956311456177
73	10388	8.91	-1.1515135763115
73	10531	9.01	-0.96140768087823
73	10666	9.11	-0.73028777864894
73	10801	9.21	-0.46388364861944
73	10936	9.31	-0.16853325517096
73	11071	9.41	0.14896482113362
73	11206	9.51	0.48149773653063
73	11341	9.61	0.8217820343352
73	11476	9.71	1.1625031384314
73	11611	9.81	1.3811759857877
73	11746	9.91	1.3793877476033
73	11889	10.01	1.3578055496141
73	12024	10.11	1.3201423722583
73	12159	10.21	1.2697179671133
73	12294	10.31	1.2094760448008
73	12429	10.41	1.1420042063049
73	12564	10.51	1.0695558456804
73	12699	10.61	0.99407335466944
73	12834	10.71	0.9172120548413
73	12969	10.81	0.84036437034601
73	13104	10.91	0.76468383422189
73	13247	11.01	0.69110859351289
73	13382	11.11	0.62038414343417
73	13517	11.21	0.55308507874615
73	13652	11.31	0.48963570169334
73	13787	11.41	0.43032937071295
72	251	1.11	-0.23554134806503
72	375	1.21	-0.47818412665102
72	498	1.31	-0.66915362764668
72	622	1.41	-0.81444819562009
72	746	1.51	-0.91972856983773
72	869	1.61	-0.99029011218725
72	992	1.71	-1.0310453262832
72	1116	1.81	-1.0465151676907
72	1239	1.91	-1.040827769377
72	1373	2.01	-1.0177233302034
72	1496	2.11	-0.98056403572926
72	1619	2.21	-0.93234799831343
72	1742	2.31	-0.87572631638118
72	1865	2.41	-0.81302245986912
72	1988	2.51	-0.74625328962412
72	2111	2.61	-0.67715111250735
72	2234	2.71	-0.60718626085183
72	2357	2.81	-0.53758976467542
72	2480	2.91	-0.46937575765078
72	2611	3.01	-0.40336332341546
72	2734	3.11	-0.34019754759278
72	2857	3.21	-0.28036959313518
72	2980	3.31	-0.22423566266632
72	3103	3.41	-0.17203475171179
72	3226	3.51	-0.12390513148333
72	3349	3.61	-0.079899529621485
72	3472	3.71	-0.039999002434499
72	3595	3.81	-0.0041255130685869
72	3718	3.91	0.027846752845306
72	3849	4.01	0.056081288817111
72	3972	4.11	0.080770330497515
72	4095	4.21	0.10212701615444
72	4218	4.31	0.12037857507394
72	4341	4.41	0.13576047071524
72	4464	4.51	0.14851142353542
72	4587	4.61	0.1588692379741
72	4710	4.71	0.16706735885244
72	4833	4.81	0.17333208423516
72	4956	4.91	0.17788036436315
72	5099	5.01	0.18091811947762
72	5234	5.11	0.18263901301765
72	5369	5.21	0.1832236206738
72	5504	5.31	0.18283893999573
72	5639	5.41	0.18163818957966
72	5774	5.51	0.17976085122484
72	5909	5.61	0.17733291275484
72	6044	5.71	0.17446727342296
72	6179	5.81	0.17126427789051
72	6314	5.91	0.16781234864851
72	6457	6.01	0.16418869043484
72	6592	6.11	0.16046004364156
72	6727	6.21	0.15668346690454
72	6862	6.31	0.15290713204266
72	6997	6.41	0.14917111718411
72	7132	6.51	0.14550818639876
72	7267	6.61	0.141944546343
72	7402	6.71	0.13850057241953
72	7537	6.81	0.13519149867847
72	7672	6.91	0.13202806724593
72	7815	7.01	0.12901713438893
72	7950	7.11	0.12616223147539
72	8085	7.21	0.12346408008312
72	8220	7.31	0.12092106131654
72	8355	7.41	0.11852964008661
72	8490	7.51	0.11628474565271
72	8625	7.61	0.11418011016602
72	8760	7.71	0.1122085672975
72	8895	7.81	0.10976991834681
72	9030	7.91	0.095557634402255
72	9173	8.01	0.026027094319048
72	9308	8.11	-0.083763001351755
72	9443	8.21	-0.21991263336467
72	9578	8.31	-0.36979570598845
72	9713	8.41	-0.52214357201414
72	9848	8.51	-0.66709968538312
72	9983	8.61	-0.79624806776266
72	10118	8.71	-0.90261812115209
72	10253	8.81	-0.98066817288931
72	10388	8.91	-1.0262500050704
72	10531	9.01	-1.0365564992242
72	10666	9.11	-1.0100544197286
72	10801	9.21	-0.94640426584398
72	10936	9.31	-0.84636904152475
72	11071	9.41	-0.71171372291872
72	11206	9.51	-0.54509714386448
72	11341	9.61	-0.34995796762587
72	11476	9.71	-0.13039636620569
72	11611	9.81	0.10668675490244
72	11746	9.91	0.33578816675046
72	11889	10.01	0.52133860814898
72	12024	10.11	0.66798970732158
72	12159	10.21	0.78018422695081
72	12294	10.31	0.86212464536395
72	12429	10.41	0.91775076121969
72	12564	10.51	0.95072511336554
72	12699	10.61	0.96442509645378
72	12834	10.71	0.96194074352987
72	12969	10.81	0.94607723743714
72	13104	10.91	0.9193613022088
72	13247	11.01	0.88405071242086
72	13382	11.11	0.84214624198609
72	13517	11.21	0.7954054532739
72	13652	11.31	0.74535780233909
72	13787	11.41	0.69332060600331
71	251	1.11	36.55
71	375	1.21	36.55
71	498	1.31	36.55
71	622	1.41	36.55
71	746	1.51	36.55
71	869	1.61	36.55
71	992	1.71	36.55
71	1116	1.81	36.55
71	1239	1.91	36.55
71	1373	2.01	36.55
71	1496	2.11	36.55
71	1619	2.21	36.55
71	1742	2.31	36.55
71	1865	2.41	36.55
71	1988	2.51	36.55
71	2111	2.61	36.55
71	2234	2.71	36.55
71	2357	2.81	36.55
71	2480	2.91	36.55
71	2611	3.01	36.55
71	2734	3.11	36.55
71	2857	3.21	36.55
71	2980	3.31	36.55
71	3103	3.41	36.55
71	3226	3.51	36.55
71	3349	3.61	36.55
71	3472	3.71	36.55
71	3595	3.81	36.55
71	3718	3.91	36.55
71	3849	4.01	36.55
71	3972	4.11	36.55
71	4095	4.21	36.55
71	4218	4.31	36.55
71	4341	4.41	36.55
71	4464	4.51	36.55
71	4587	4.61	36.55
71	4710	4.71	36.55
71	4833	4.81	36.55
71	4956	4.91	36.55
71	5099	5.01	36.55
71	5234	5.11	36.55
71	5369	5.21	36.55
71	5504	5.31	36.55
71	5639	5.41	36.55
71	5774	5.51	36.55
71	5909	5.61	36.55
71	6044	5.71	36.55
71	6179	5.81	36.55
71	6314	5.91	36.55
71	6457	6.01	36.55
71	6592	6.11	36.55
71	6727	6.21	36.55
71	6862	6.31	36.55
71	6997	6.41	36.55
71	7132	6.51	36.55
71	7267	6.61	36.55
71	7402	6.71	36.55
71	7537	6.81	36.55
71	7672	6.91	36.55
71	7815	7.01	36.55
71	7950	7.11	36.55
71	8085	7.21	36.55
71	8220	7.31	36.55
71	8355	7.41	36.55
71	8490	7.51	36.55
71	8625	7.61	36.55
71	8760	7.71	36.55
71	8895	7.81	36.55
71	9030	7.91	36.55
71	9173	8.01	36.55
71	9308	8.11	36.55
71	9443	8.21	36.55
71	9578	8.31	36.55
71	9713	8.41	36.55
71	9848	8.51	36.55
71	9983	8.61	36.55
71	10118	8.71	36.55
71	10253	8.81	36.55
71	10388	8.91	36.55
71	10531	9.01	36.55
71	10666	9.11	36.55
71	10801	9.21	36.55
71	10936	9.31	36.55
71	11071	9.41	36.55
71	11206	9.51	36.55
71	11341	9.61	36.55
71	11476	9.71	36.55
71	11611	9.81	36.55
71	11746	9.91	36.55
71	11889	10.01	36.55
71	12024	10.11	36.55
71	12159	10.21	36.55
71	12294	10.31	36.55
71	12429	10.41	36.55
71	12564	10.51	36.55
71	12699	10.61	36.55
71	12834	10.71	36.55
71	12969	10.81	36.55
71	13104	10.91	36.55
71	13247	11.01	36.55
71	13382	11.11	36.55
71	13517	11.21	36.55
71	13652	11.31	36.55
71	13787	11.41	36.55
70	251	1.11	116.21713679403
70	375	1.21	118.99156770127
70	498	1.31	121.76083195596
70	622	1.41	124.52311160838
70	746	1.51	127.27703410631
70	869	1.61	130.02161641808
70	992	1.71	132.75621284489
70	1116	1.81	135.48046667943
70	1239	1.91	138.19426578302
70	1373	2.01	140.89770208132
70	1496	2.11	143.59103491986
70	1619	2.21	146.2746581719
70	1742	2.31	148.94907095303
70	1865	2.41	151.61485176718
70	1988	2.51	154.27263588695
70	2111	2.61	156.92309575581
70	2234	2.71	159.56692419076
70	2357	2.81	162.20482015924
70	2480	2.91	164.83747690425
70	2611	3.01	167.46557219459
70	2734	3.11	170.08976048349
70	2857	3.21	172.71066676689
70	2980	3.31	175.32888194298
70	3103	3.41	177.9449594857
70	3226	3.51	180.55941325725
70	3349	3.61	183.1727162974
70	3472	3.71	185.78530044037
70	3595	3.81	188.3975566232
70	3718	3.91	191.0098357623
70	3849	4.01	193.62245008753
70	3972	4.11	196.23567483512
70	4095	4.21	198.84975021221
70	4218	4.31	201.46488355679
70	4341	4.41	204.08125162674
70	4464	4.51	206.69900296125
70	4587	4.61	209.31826026631
70	4710	4.71	211.93912278427
70	4833	4.81	214.56166861404
70	4956	4.91	217.18595695548
70	5099	5.01	219.81203025688
70	5234	5.11	222.43991624967
70	5369	5.21	225.06962985892
70	5504	5.31	227.70117498186
70	5639	5.41	230.33454613034
70	5774	5.51	232.96972993545
70	5909	5.61	235.60670651535
70	6044	5.71	238.24545070887
70	6179	5.81	240.88593317938
70	6314	5.91	243.5281213943
70	6457	6.01	246.17198048686
70	6592	6.11	248.81747400712
70	6727	6.21	251.46456456997
70	6862	6.31	254.11321440788
70	6997	6.41	256.76338583637
70	7132	6.51	259.41504164012
70	7267	6.61	262.06814538744
70	7402	6.71	264.72266168059
70	7537	6.81	267.37855634926
70	7672	6.91	270.03579659386
70	7815	7.01	272.69435108513
70	7950	7.11	275.35419002601
70	8085	7.21	278.01528518133
70	8220	7.31	280.6776098803
70	8355	7.41	283.34113899646
70	8490	7.51	286.00584890923
70	8625	7.61	288.67171745082
70	8760	7.71	291.33872384172
70	8895	7.81	294.00684849925
70	9030	7.91	296.67605080368
70	9173	8.01	299.34604846443
70	9308	8.11	302.01606621624
70	9443	8.21	304.6849544411
70	9578	8.31	307.35132559489
70	9713	8.41	310.01367772101
70	9848	8.51	312.67050427418
70	9983	8.61	315.3203897611
70	10118	8.71	317.96209096136
70	10253	8.81	320.59460372393
70	10388	8.91	323.21721554264
70	10531	9.01	325.82954430013
70	10666	9.11	328.43156373434
70	10801	9.21	331.02361632665
70	10936	9.31	333.60641443599
70	11071	9.41	336.18103061096
70	11206	9.51	338.74887810099
70	11341	9.61	341.31168266059
70	11476	9.71	343.87144679602
70	11611	9.81	346.43040719181
70	11746	9.91	348.99091628771
70	11889	10.01	351.55515685676
70	12024	10.11	354.12490628891
70	12159	10.21	356.70156188743
70	12294	10.31	359.28618481681
70	12429	10.41	361.87954160251
70	12564	10.51	364.48214297437
70	12699	10.61	367.09427992136
70	12834	10.71	369.7160568901
70	12969	10.81	372.34742211468
70	13104	10.91	374.98819511053
70	13247	11.01	377.63809140259
70	13382	11.11	380.2967445879
70	13517	11.21	382.96372585557
70	13652	11.31	385.63856110496
70	13787	11.41	388.32074581465
69	251	1.11	27.766609071272
69	375	1.21	27.729257722208
69	498	1.31	27.670534910666
69	622	1.41	27.595275414596
69	746	1.51	27.507732470067
69	869	1.61	27.411613150674
69	992	1.71	27.310115945249
69	1116	1.81	27.205969588296
69	1239	1.91	27.10147234071
69	1373	2.01	26.998531049178
69	1496	2.11	26.898699431104
69	1619	2.21	26.803215138516
69	1742	2.31	26.713035249427
69	1865	2.41	26.62886991922
69	1988	2.51	26.551213998303
69	2111	2.61	26.4803764863
69	2234	2.71	26.416507748005
69	2357	2.81	26.359624463045
69	2480	2.91	26.309632320285
69	2611	3.01	26.266346500242
69	2734	3.11	26.22951001485
69	2857	3.21	26.198809994433
69	2980	3.31	26.173892027406
69	3103	3.41	26.154372669604
69	3226	3.51	26.139850247789
69	3349	3.61	26.129914086331
69	3472	3.71	26.124152287834
69	3595	3.81	26.122158197896
69	3718	3.91	26.12353568182
69	3849	4.01	26.127903337128
69	3972	4.11	26.134897760612
69	4095	4.21	26.144175982601
69	4218	4.31	26.1554171744
69	4341	4.41	26.1683237277
69	4464	4.51	26.182621797301
69	4587	4.61	26.198061390977
69	4710	4.71	26.214416082757
69	4833	4.81	26.231482418554
69	4956	4.91	26.249079075878
69	5099	5.01	26.267045832516
69	5234	5.11	26.285242392559
69	5369	5.21	26.303547111985
69	5504	5.31	26.32185566032
69	5639	5.41	26.340079649591
69	5774	5.51	26.358145256924
69	5909	5.61	26.375991862726
69	6044	5.71	26.393570722395
69	6179	5.81	26.410843685895
69	6314	5.91	26.427781976385
69	6457	6.01	26.444365036252
69	6592	6.11	26.460579446454
69	6727	6.21	26.476417922961
69	6862	6.31	26.491878392259
69	6997	6.41	26.506963146363
69	7132	6.51	26.521678076475
69	7267	6.61	26.536031983421
69	7402	6.71	26.550035962125
69	7537	6.81	26.563702856746
69	7672	6.91	26.57704678261
69	7815	7.01	26.590082710719
69	7950	7.11	26.602826110389
69	8085	7.21	26.61529264548
69	8220	7.31	26.627497919595
69	8355	7.41	26.63945726574
69	8490	7.51	26.65118557599
69	8625	7.61	26.662697166877
69	8760	7.71	26.674005676429
69	8895	7.81	26.685118065026
69	9030	7.91	26.695596055474
69	9173	8.01	26.701493606933
69	9308	8.11	26.698119691979
69	9443	8.21	26.682226270353
69	9578	8.31	26.651885756186
69	9713	8.41	26.606358734254
69	9848	8.51	26.545954939984
69	9983	8.61	26.471890242035
69	10118	8.71	26.386142106166
69	10253	8.81	26.29130577381
69	10388	8.91	26.19045315757
69	10531	9.01	26.086996237288
69	10666	9.11	25.984556533157
69	10801	9.21	25.886842035122
69	10936	9.31	25.797532779267
69	11071	9.41	25.720176080724
69	11206	9.51	25.658092257885
[...]
132	2860	3.21	12.191268051131
132	2983	3.31	12.032203724016
132	3106	3.41	11.870893791343
132	3229	3.51	11.707860148781
132	3352	3.61	11.54358404961
132	3475	3.71	11.378505566001
132	3598	3.81	11.213023768076
132	3721	3.91	11.047497494948
132	3852	4.01	10.882246604529
132	3975	4.11	10.7175536011
132	4098	4.21	10.5536655512
132	4221	4.31	10.390796209393
132	4344	4.41	10.229128285734
132	4467	4.51	10.068815796296
132	4590	4.61	9.9099864469384
132	4713	4.71	9.7527440085146
132	4836	4.81	9.59717064902
132	4959	4.91	9.4433291947624
132	5102	5.01	9.291265298478
132	5237	5.11	9.1410094975245
132	5372	5.21	8.9925791498325
132	5507	5.31	8.8459802392597
132	5642	5.41	8.7012090454026
132	5777	5.51	8.5582536758193
132	5912	5.61	8.4170954610491
132	6047	5.71	8.2777102148269
132	6182	5.81	8.140069363517
132	6317	5.91	8.0041409500834
132	6460	6.01	7.8698905188959
132	6595	6.11	7.7372818884006
132	6730	6.21	7.6062778191698
132	6865	6.31	7.4768405851447
132	7000	6.41	7.3489324560087
132	7135	6.51	7.2225160986119
132	7270	6.61	7.0975549052367
132	7405	6.71	6.9740132562635
132	7540	6.81	6.8518567244941
132	7675	6.91	6.7310522280279
132	7818	7.01	6.6115681381839
132	7953	7.11	6.4933743485254
132	8088	7.21	6.3764423105988
132	8223	7.31	6.2607450415371
132	8358	7.41	6.1462571082203
132	8493	7.51	6.0329545922386
132	8628	7.61	5.9208150394643
132	8763	7.71	5.8098173976196
132	8898	7.81	5.6999419448279
132	9033	7.91	5.5911568269071
132	9176	8.01	5.4832586740741
132	9311	8.11	5.3755660416326
132	9446	8.21	5.2669942723787
132	9581	8.31	5.1561943739069
132	9716	8.41	5.0416791779135
132	9851	8.51	4.9219359444175
132	9986	8.61	4.7955248627463
132	10121	8.71	4.6611631631779
132	10256	8.81	4.5177947898457
132	10391	8.91	4.3646457983335
132	10534	9.01	4.2012658316751
132	10669	9.11	4.0275561974229
132	10804	9.21	3.8437852171418
132	10939	9.31	3.6505916490578
132	11074	9.41	3.448977095446
132	11209	9.51	3.2402883993854
132	11344	9.61	3.0261911113205
132	11479	9.71	2.8086351649961
132	11614	9.81	2.5898139452236
132	11749	9.91	2.3720722143769
132	11892	10.01	2.1576524426699
132	12027	10.11	1.9484139738418
132	12162	10.21	1.7458269854658
132	12297	10.31	1.5510168907097
132	12432	10.41	1.3648063446932
132	12567	10.51	1.1877546304926
132	12702	10.61	1.0201942780676
132	12837	10.71	0.86226483641735
132	12972	10.81	0.71394377601814
132	13107	10.91	0.57507454595685
132	13250	11.01	0.44539184904437
132	13385	11.11	0.32454422944403
132	13520	11.21	0.21211409180881
132	13655	11.31	0.1076352893856
132	13790	11.41	0.010608431764865
132	13807	11.41	0
133	254	1.11	-0.0088141407359288
133	378	1.21	-0.043739062013806
133	501	1.31	-0.10055217854604
133	625	1.41	-0.17435872893641
133	749	1.51	-0.26084886972311
133	872	1.61	-0.3562625736929
133	995	1.71	-0.45735222697597
133	1119	1.81	-0.56134388551576
133	1242	1.91	-0.665898007085
133	1376	2.01	-0.76907034300868
133	1499	2.11	-0.86927355402675
133	1622	2.21	-0.96524000698892
133	1745	2.31	-1.0559861128972
133	1868	2.41	-1.1407784816696
133	1991	2.51	-1.2191020942886
133	2114	2.61	-1.2906306280632
133	2237	2.71	-1.3551990148752
133	2360	2.81	-1.4127782647964
133	2483	2.91	-1.4634525476265
133	2614	3.01	-1.5073984920118
133	2737	3.11	-1.5448666351619
133	2860	3.21	-1.5761649351238
133	2983	3.31	-1.6016442414558
133	3106	3.41	-1.6216856083667
133	3229	3.51	-1.6366893263844
133	3352	3.61	-1.6470655438608
133	3475	3.71	-1.65322634763
133	3598	3.81	-1.6555791724618
133	3721	3.91	-1.654521411197
133	3852	4.01	-1.6504361012488
133	3975	4.11	-1.6436885681814
133	4098	4.21	-1.6346239130491
133	4221	4.31	-1.6235652368389
133	4344	4.41	-1.6108125024955
133	4467	4.51	-1.5966419424222
133	4590	4.61	-1.581305926891
133	4713	4.71	-1.5650332163198
133	4836	4.81	-1.5480295277762
133	4959	4.91	-1.5304783532542
133	5102	5.01	-1.5125419741672
133	5237	5.11	-1.4943626230596
133	5372	5.21	-1.4760637497103
133	5507	5.31	-1.4577513545682
133	5642	5.41	-1.4395153577931
133	5777	5.51	-1.421430977077
133	5912	5.61	-1.4035600918896
133	6047	5.71	-1.3859525758275
133	6182	5.81	-1.3686475823725
133	6317	5.91	-1.3516747725898
133	6460	6.01	-1.3350554761403
133	6595	6.11	-1.3188037794703
133	6730	6.21	-1.3029275371967
133	6865	6.31	-1.2874293045496
133	7000	6.41	-1.2723071902972
133	7135	6.51	-1.257555630877
133	7270	6.61	-1.2431660875302
133	7405	6.71	-1.2291276690871
133	7540	6.81	-1.2154276837288
133	7675	6.91	-1.2020521235504
133	7818	7.01	-1.1889860861137
133	7953	7.11	-1.1762141374136
133	8088	7.21	-1.1637206208089
133	8223	7.31	-1.1514899165064
133	8358	7.41	-1.1395066561487
133	8493	7.51	-1.1277558969548
133	8628	7.61	-1.1162232597129
133	8763	7.71	-1.1048950347323
133	8898	7.81	-1.0937582596455
133	9033	7.91	-1.0831381463581
133	9176	8.01	-1.0765452894988
133	9311	8.11	-1.0788213034962
133	9446	8.21	-1.0933532288015
133	9581	8.31	-1.1221949122428
133	9716	8.41	-1.1661984555137
133	9851	8.51	-1.2251526886509
133	9986	8.61	-1.2979259027757
133	10121	8.71	-1.3826103381104
133	10256	8.81	-1.4766661699491
133	10391	8.91	-1.5770629678676
133	10534	9.01	-1.6804168232077
133	10669	9.11	-1.7831215481338
133	10804	9.21	-1.8814725477078
133	10939	9.31	-1.9717821558056
133	11074	9.41	-2.0504854075349
133	11209	9.51	-2.1142353961647
133	11344	9.61	-2.1599875323282
133	11479	9.71	-2.1850721880438
133	11614	9.81	-2.187255368327
133	11749	9.91	-2.1658981728752
133	11892	10.01	-2.1236297668415
133	12027	10.11	-2.0645943563864
133	12162	10.21	-1.9924800840546
133	12297	10.31	-1.9105414088308
133	12432	10.41	-1.8216242116909
133	12567	10.51	-1.7281927793968
133	12702	10.61	-1.6323579361328
133	12837	10.71	-1.5359057004553
133	12972	10.81	-1.4403259438175
133	13107	10.91	-1.3468406167148
133	13250	11.01	-1.2564311894451
133	13385	11.11	-1.1698650268964
133	13520	11.21	-1.0877204810133
133	13655	11.31	-1.0104105410975
133	13790	11.41	-0.93820493133091
133	13807	11.41	-0.93127172527088
134	254	1.11	1
134	378	1.21	1
134	501	1.31	1
134	625	1.41	1
134	749	1.51	1
134	872	1.61	1
134	995	1.71	1
134	1119	1.81	1
134	1242	1.91	1
134	1376	2.01	1
134	1499	2.11	1
134	1622	2.21	1
134	1745	2.31	1
134	1868	2.41	1
134	1991	2.51	1
134	2114	2.61	1
134	2237	2.71	1
134	2360	2.81	1
134	2483	2.91	1
134	2614	3.01	1
134	2737	3.11	1
134	2860	3.21	1
134	2983	3.31	1
134	3106	3.41	1
134	3229	3.51	1
134	3352	3.61	1
134	3475	3.71	1
134	3598	3.81	1
134	3721	3.91	1
134	3852	4.01	1
134	3975	4.11	1
134	4098	4.21	1
134	4221	4.31	1
134	4344	4.41	1
134	4467	4.51	1
134	4590	4.61	1
134	4713	4.71	1
134	4836	4.81	1
134	4959	4.91	1
134	5102	5.01	1
134	5237	5.11	1
134	5372	5.21	1
134	5507	5.31	1
134	5642	5.41	1
134	5777	5.51	1
134	5912	5.61	1
134	6047	5.71	1
134	6182	5.81	1
134	6317	5.91	1
134	6460	6.01	1
134	6595	6.11	1
134	6730	6.21	1
134	6865	6.31	1
134	7000	6.41	1
134	7135	6.51	1
134	7270	6.61	1
134	7405	6.71	1
134	7540	6.81	1
134	7675	6.91	1
134	7818	7.01	1
134	7953	7.11	1
134	8088	7.21	1
134	8223	7.31	1
134	8358	7.41	1
134	8493	7.51	1
134	8628	7.61	1
134	8763	7.71	1
134	8898	7.81	1
134	9033	7.91	1
134	9176	8.01	1
134	9311	8.11	1
134	9446	8.21	1
134	9581	8.31	1
134	9716	8.41	1
134	9851	8.51	1
134	9986	8.61	1
134	10121	8.71	1
134	10256	8.81	1
134	10391	8.91	1
134	10534	9.01	1
134	10669	9.11	1
134	10804	9.21	1
134	10939	9.31	1
134	11074	9.41	1
134	11209	9.51	1
134	11344	9.61	1
134	11479	9.71	1
134	11614	9.81	1
134	11749	9.91	1
134	11892	10.01	1
134	12027	10.11	1
134	12162	10.21	1
134	12297	10.31	1
134	12432	10.41	1
134	12567	10.51	1
134	12702	10.61	1
134	12837	10.71	1
134	12972	10.81	1
134	13107	10.91	1
134	13250	11.01	1
134	13385	11.11	1
134	13520	11.21	1
134	13655	11.31	1
134	13790	11.41	1
134	13807	11.41	1
135	254	1.11	27.777778625488
135	378	1.21	27.777778625488
135	501	1.31	27.777778625488
135	625	1.41	27.777778625488
135	749	1.51	27.777778625488
135	872	1.61	27.777778625488
135	995	1.71	27.777778625488
135	1119	1.81	27.777778625488
135	1242	1.91	27.777778625488
135	1376	2.01	27.777778625488
135	1499	2.11	27.777778625488
135	1622	2.21	27.777778625488
135	1745	2.31	27.777778625488
135	1868	2.41	27.777778625488
135	1991	2.51	27.777778625488
135	2114	2.61	27.777778625488
135	2237	2.71	27.777778625488
135	2360	2.81	27.777778625488
135	2483	2.91	27.777778625488
135	2614	3.01	27.777778625488
135	2737	3.11	27.777778625488
135	2860	3.21	27.777778625488
135	2983	3.31	27.777778625488
135	3106	3.41	27.777778625488
135	3229	3.51	27.777778625488
135	3352	3.61	27.777778625488
135	3475	3.71	27.777778625488
135	3598	3.81	27.777778625488
135	3721	3.91	27.777778625488
135	3852	4.01	27.777778625488
135	3975	4.11	27.777778625488
135	4098	4.21	27.777778625488
135	4221	4.31	27.777778625488
135	4344	4.41	27.777778625488
135	4467	4.51	27.777778625488
135	4590	4.61	27.777778625488
135	4713	4.71	27.777778625488
135	4836	4.81	27.777778625488
135	4959	4.91	27.777778625488
135	5102	5.01	27.777778625488
135	5237	5.11	27.777778625488
135	5372	5.21	27.777778625488
135	5507	5.31	27.777778625488
135	5642	5.41	27.777778625488
135	5777	5.51	27.777778625488
135	5912	5.61	27.777778625488
135	6047	5.71	27.777778625488
135	6182	5.81	27.777778625488
135	6317	5.91	27.777778625488
135	6460	6.01	27.777778625488
135	6595	6.11	27.777778625488
135	6730	6.21	27.777778625488
135	6865	6.31	27.777778625488
135	7000	6.41	27.777778625488
135	7135	6.51	27.777778625488
135	7270	6.61	27.777778625488
135	7405	6.71	27.777778625488
135	7540	6.81	27.777778625488
135	7675	6.91	27.777778625488
135	7818	7.01	27.777778625488
135	7953	7.11	27.777778625488
135	8088	7.21	27.777778625488
135	8223	7.31	27.777778625488
135	8358	7.41	27.777778625488
135	8493	7.51	27.777778625488
135	8628	7.61	27.777778625488
135	8763	7.71	27.777778625488
135	8898	7.81	27.777778625488
135	9033	7.91	27.777778625488
135	9176	8.01	27.777778625488
135	9311	8.11	27.777778625488
135	9446	8.21	27.777778625488
135	9581	8.31	27.777778625488
135	9716	8.41	27.777778625488
135	9851	8.51	27.777778625488
135	9986	8.61	27.777778625488
135	10121	8.71	27.777778625488
135	10256	8.81	27.777778625488
135	10391	8.91	27.777778625488
135	10534	9.01	27.777778625488
135	10669	9.11	27.777778625488
135	10804	9.21	27.777778625488
135	10939	9.31	27.777778625488
135	11074	9.41	27.777778625488
135	11209	9.51	27.777778625488
135	11344	9.61	27.777778625488
135	11479	9.71	27.777778625488
135	11614	9.81	27.777778625488
135	11749	9.91	27.777778625488
135	11892	10.01	27.777778625488
135	12027	10.11	27.777778625488
135	12162	10.21	27.777778625488
135	12297	10.31	27.777778625488
135	12432	10.41	27.777778625488
135	12567	10.51	27.777778625488
135	12702	10.61	27.777778625488
135	12837	10.71	27.777778625488
135	12972	10.81	27.777778625488
135	13107	10.91	27.777778625488
135	13250	11.01	27.777778625488
135	13385	11.11	27.777778625488
135	13520	11.21	27.777778625488
135	13655	11.31	27.777778625488
135	13790	11.41	27.777778625488
135	13807	11.41	27.777778625488
136	254	1.11	96.217642974854
136	378	1.21	98.995420837402
136	501	1.31	101.77319869995
136	625	1.41	104.5509765625
136	749	1.51	107.32875442505
136	872	1.61	110.1065322876
136	995	1.71	112.88431015015
136	1119	1.81	115.6620880127
136	1242	1.91	118.43986587524
136	1376	2.01	121.21764373779
136	1499	2.11	123.99542160034
136	1622	2.21	126.77319946289
136	1745	2.31	129.55097732544
136	1868	2.41	132.32875518799
136	1991	2.51	135.10653305054
136	2114	2.61	137.88431091309
136	2237	2.71	140.66208877564
136	2360	2.81	143.43986663818
136	2483	2.91	146.21764450073
136	2614	3.01	148.99542236328
136	2737	3.11	151.77320022583
136	2860	3.21	154.55097808838
136	2983	3.31	157.32875595093
136	3106	3.41	160.10653381348
136	3229	3.51	162.88431167603
136	3352	3.61	165.66208953858
136	3475	3.71	168.43986740112
136	3598	3.81	171.21764526367
136	3721	3.91	173.99542312622
136	3852	4.01	176.77320098877
136	3975	4.11	179.55097885132
136	4098	4.21	182.32875671387
136	4221	4.31	185.10653457642
136	4344	4.41	187.88431243897
136	4467	4.51	190.66209030152
136	4590	4.61	193.43986816406
136	4713	4.71	196.21764602661
136	4836	4.81	198.99542388916
136	4959	4.91	201.77320175171
136	5102	5.01	204.55097961426
136	5237	5.11	207.32875747681
136	5372	5.21	210.10653533936
136	5507	5.31	212.88431320191
136	5642	5.41	215.66209106446
136	5777	5.51	218.439868927
136	5912	5.61	221.21764678955
136	6047	5.71	223.9954246521
136	6182	5.81	226.77320251465
136	6317	5.91	229.5509803772
136	6460	6.01	232.32875823975
136	6595	6.11	235.1065361023
136	6730	6.21	237.88431396485
136	6865	6.31	240.66209182739
136	7000	6.41	243.43986968994
136	7135	6.51	246.21764755249
136	7270	6.61	248.99542541504
136	7405	6.71	251.77320327759
136	7540	6.81	254.55098114014
136	7675	6.91	257.32875900269
136	7818	7.01	260.10653686524
136	7953	7.11	262.88431472779
136	8088	7.21	265.66209259033
136	8223	7.31	268.43987045288
136	8358	7.41	271.21764831543
136	8493	7.51	273.99542617798
136	8628	7.61	276.77320404053
136	8763	7.71	279.55098190308
136	8898	7.81	282.32875976563
136	9033	7.91	285.10653762818
136	9176	8.01	287.88431549073
136	9311	8.11	290.66209335327
136	9446	8.21	293.43987121582
136	9581	8.31	296.21764907837
136	9716	8.41	298.99542694092
136	9851	8.51	301.77320480347
136	9986	8.61	304.55098266602
136	10121	8.71	307.32876052857
136	10256	8.81	310.10653839112
136	10391	8.91	312.88431625367
136	10534	9.01	315.66209411621
136	10669	9.11	318.43987197876
136	10804	9.21	321.21764984131
136	10939	9.31	323.99542770386
136	11074	9.41	326.77320556641
136	11209	9.51	329.55098342896
136	11344	9.61	332.32876129151
136	11479	9.71	335.10653915406
136	11614	9.81	337.88431701661
136	11749	9.91	340.66209487915
136	11892	10.01	343.4398727417
136	12027	10.11	346.21765060425
136	12162	10.21	348.9954284668
136	12297	10.31	351.77320632935
136	12432	10.41	354.5509841919
136	12567	10.51	357.32876205445
136	12702	10.61	360.106539917
136	12837	10.71	362.88431777955
136	12972	10.81	365.66209564209
136	13107	10.91	368.43987350464
136	13250	11.01	371.21765136719
136	13385	11.11	373.99542922974
136	13520	11.21	376.77320709229
136	13655	11.31	379.55098495484
136	13790	11.41	382.32876281739
136	13807	11.41	382.32876281739
137	254	1.11	36.55
137	378	1.21	36.55
137	501	1.31	36.55
137	625	1.41	36.55
137	749	1.51	36.55
137	872	1.61	36.55
137	995	1.71	36.55
137	1119	1.81	36.55
137	1242	1.91	36.55
137	1376	2.01	36.55
137	1499	2.11	36.55
137	1622	2.21	36.55
137	1745	2.31	36.55
137	1868	2.41	36.55
137	1991	2.51	36.55
137	2114	2.61	36.55
137	2237	2.71	36.55
137	2360	2.81	36.55
137	2483	2.91	36.55
137	2614	3.01	36.55
137	2737	3.11	36.55
137	2860	3.21	36.55
137	2983	3.31	36.55
137	3106	3.41	36.55
137	3229	3.51	36.55
137	3352	3.61	36.55
137	3475	3.71	36.55
137	3598	3.81	36.55
137	3721	3.91	36.55
137	3852	4.01	36.55
137	3975	4.11	36.55
137	4098	4.21	36.55
137	4221	4.31	36.55
137	4344	4.41	36.55
137	4467	4.51	36.55
137	4590	4.61	36.55
137	4713	4.71	36.55
137	4836	4.81	36.55
137	4959	4.91	36.55
137	5102	5.01	36.55
137	5237	5.11	36.55
137	5372	5.21	36.55
137	5507	5.31	36.55
137	5642	5.41	36.55
137	5777	5.51	36.55
137	5912	5.61	36.55
137	6047	5.71	36.55
137	6182	5.81	36.55
137	6317	5.91	36.55
137	6460	6.01	36.55
137	6595	6.11	36.55
137	6730	6.21	36.55
137	6865	6.31	36.55
137	7000	6.41	36.55
137	7135	6.51	36.55
137	7270	6.61	36.55
137	7405	6.71	36.55
137	7540	6.81	36.55
137	7675	6.91	36.55
137	7818	7.01	36.55
137	7953	7.11	36.55
137	8088	7.21	36.55
137	8223	7.31	36.55
137	8358	7.41	36.55
137	8493	7.51	36.55
137	8628	7.61	36.55
137	8763	7.71	36.55
137	8898	7.81	36.55
137	9033	7.91	36.55
137	9176	8.01	36.55
137	9311	8.11	36.55
137	9446	8.21	36.55
137	9581	8.31	36.55
137	9716	8.41	36.55
137	9851	8.51	36.55
137	9986	8.61	36.55
137	10121	8.71	36.55
137	10256	8.81	36.55
137	10391	8.91	36.55
137	10534	9.01	36.55
137	10669	9.11	36.55
137	10804	9.21	36.55
137	10939	9.31	36.55
137	11074	9.41	36.55
137	11209	9.51	36.55
137	11344	9.61	36.55
137	11479	9.71	36.55
137	11614	9.81	36.55
137	11749	9.91	36.55
137	11892	10.01	36.55
137	12027	10.11	36.55
137	12162	10.21	36.55
137	12297	10.31	36.55
137	12432	10.41	36.55
137	12567	10.51	36.55
137	12702	10.61	36.55
137	12837	10.71	36.55
137	12972	10.81	36.55
137	13107	10.91	36.55
137	13250	11.01	36.55
137	13385	11.11	36.55
137	13520	11.21	36.55
137	13655	11.31	36.55
137	13790	11.41	36.55
137	13807	11.41	36.55
138	254	1.11	0
138	378	1.21	0
138	501	1.31	0
138	625	1.41	0
138	749	1.51	0
138	872	1.61	0
138	995	1.71	0
138	1119	1.81	0
138	1242	1.91	0
138	1376	2.01	0
138	1499	2.11	0
138	1622	2.21	0
138	1745	2.31	0
138	1868	2.41	0
138	1991	2.51	0
138	2114	2.61	0
138	2237	2.71	0
138	2360	2.81	0
138	2483	2.91	0
138	2614	3.01	0
138	2737	3.11	0
138	2860	3.21	0
138	2983	3.31	0
138	3106	3.41	0
138	3229	3.51	0
138	3352	3.61	0
138	3475	3.71	0
138	3598	3.81	0
138	3721	3.91	0
138	3852	4.01	0
138	3975	4.11	0
138	4098	4.21	0
138	4221	4.31	0
138	4344	4.41	0
138	4467	4.51	0
138	4590	4.61	0
138	4713	4.71	0
138	4836	4.81	0
138	4959	4.91	0
138	5102	5.01	0
138	5237	5.11	0
138	5372	5.21	0
138	5507	5.31	0
138	5642	5.41	0
138	5777	5.51	0
138	5912	5.61	0
138	6047	5.71	0
138	6182	5.81	0
138	6317	5.91	0
138	6460	6.01	0
138	6595	6.11	0
138	6730	6.21	0
138	6865	6.31	0
138	7000	6.41	0
138	7135	6.51	0
138	7270	6.61	0
138	7405	6.71	0
138	7540	6.81	0
138	7675	6.91	0
138	7818	7.01	0
138	7953	7.11	0
138	8088	7.21	0
138	8223	7.31	0
138	8358	7.41	0
138	8493	7.51	0
138	8628	7.61	0
138	8763	7.71	0
138	8898	7.81	0
138	9033	7.91	0
138	9176	8.01	0
138	9311	8.11	0
138	9446	8.21	0
138	9581	8.31	0
138	9716	8.41	0
138	9851	8.51	0
138	9986	8.61	0
138	10121	8.71	0
138	10256	8.81	0
138	10391	8.91	0
138	10534	9.01	0
138	10669	9.11	0
138	10804	9.21	0
138	10939	9.31	0
138	11074	9.41	0
138	11209	9.51	0
138	11344	9.61	0
138	11479	9.71	0
138	11614	9.81	0
138	11749	9.91	0
138	11892	10.01	0
138	12027	10.11	0
138	12162	10.21	0
138	12297	10.31	0
138	12432	10.41	0
138	12567	10.51	0
138	12702	10.61	0
138	12837	10.71	0
138	12972	10.81	0
138	13107	10.91	0
138	13250	11.01	0
138	13385	11.11	0
138	13520	11.21	0
138	13655	11.31	0
138	13790	11.41	0
138	13807	11.41	0
139	254	1.11	0
139	378	1.21	0
139	501	1.31	0
139	625	1.41	0
139	749	1.51	0
139	872	1.61	0
139	995	1.71	0
139	1119	1.81	0
139	1242	1.91	0
139	1376	2.01	0
139	1499	2.11	0
139	1622	2.21	0
139	1745	2.31	0
139	1868	2.41	0
139	1991	2.51	0
139	2114	2.61	0
139	2237	2.71	0
139	2360	2.81	0
139	2483	2.91	0
139	2614	3.01	0
139	2737	3.11	0
139	2860	3.21	0
139	2983	3.31	0
139	3106	3.41	0
139	3229	3.51	0
139	3352	3.61	0
139	3475	3.71	0
139	3598	3.81	0
139	3721	3.91	0
139	3852	4.01	0
139	3975	4.11	0
139	4098	4.21	0
139	4221	4.31	0
139	4344	4.41	0
139	4467	4.51	0
139	4590	4.61	0
139	4713	4.71	0
139	4836	4.81	0
139	4959	4.91	0
139	5102	5.01	0
139	5237	5.11	0
139	5372	5.21	0
139	5507	5.31	0
139	5642	5.41	0
139	5777	5.51	0
139	5912	5.61	0
139	6047	5.71	0
139	6182	5.81	0
139	6317	5.91	0
139	6460	6.01	0
139	6595	6.11	0
139	6730	6.21	0
139	6865	6.31	0
139	7000	6.41	0
139	7135	6.51	0
139	7270	6.61	0
139	7405	6.71	0
139	7540	6.81	0
139	7675	6.91	0
139	7818	7.01	0
139	7953	7.11	0
139	8088	7.21	0
139	8223	7.31	0
139	8358	7.41	0
139	8493	7.51	0
139	8628	7.61	0
139	8763	7.71	0
139	8898	7.81	0
139	9033	7.91	0
139	9176	8.01	0
139	9311	8.11	0
139	9446	8.21	0
139	9581	8.31	0
139	9716	8.41	0
139	9851	8.51	0
139	9986	8.61	0
139	10121	8.71	0
139	10256	8.81	0
139	10391	8.91	0
139	10534	9.01	0
139	10669	9.11	0
139	10804	9.21	0
139	10939	9.31	0
139	11074	9.41	0
139	11209	9.51	0
139	11344	9.61	0
139	11479	9.71	0
139	11614	9.81	0
139	11749	9.91	0
139	11892	10.01	0
139	12027	10.11	0
139	12162	10.21	0
139	12297	10.31	0
139	12432	10.41	0
139	12567	10.51	0
139	12702	10.61	0
139	12837	10.71	0
139	12972	10.81	0
139	13107	10.91	0
139	13250	11.01	0
139	13385	11.11	0
139	13520	11.21	0
139	13655	11.31	0
139	13790	11.41	0
139	13807	11.41	0
140	1344	2	1
140	2584	3	1
140	3822	4	1
140	5072	5	1
140	6418	6	1
140	7776	7	1
140	9134	8	1
140	10492	9	1
140	11850	10	1
140	13208	11	1
141	1344	2	0.004473
141	2584	3	0.00497
141	3822	4	0.00497
141	5072	5	0.00497
141	6418	6	0.00497
141	7776	7	0.00497
141	9134	8	0.00497
141	10492	9	0.00497
141	11850	10	0.00497
141	13208	11	0.00497
142	1344	2	0
142	2584	3	0
142	3822	4	0
142	5072	5	0
142	6418	6	0
142	7776	7	0
142	9134	8	0
142	10492	9	0
142	11850	10	0
142	13208	11	0
